<?xml version="1.0" encoding="UTF-8"?>

<!-- generated on 2024-10-30 10:30:14 by Eclipse SUMO netedit Version 1.20.0
-->

<routes xmlns:xsi="http://www.w3.org/2001/XMLSchema-instance" xsi:noNamespaceSchemaLocation="http://sumo.dlr.de/xsd/routes_file.xsd">
    <!-- Vehicles, persons and containers (sorted by depart) -->
    <flow id="f_0" begin="0.00" from="E0" to="E3" number="1800" vehsPerHour="1800"/>
    <flow id="f_1" begin="0.00" from="E0" to="E2" number="1800" probability="0.5"/>
    <flow id="f_10" begin="0.00" from="-E3" to="E2" number="1800" probability="0.5"/>
    <flow id="f_11" begin="0.00" from="-E3" to="-E0" number="1800" probability="0.5"/>
    <flow id="f_2" begin="0.00" from="E0" to="E1" number="1800" probability="0.5"/>
    <flow id="f_3" begin="0.00" from="-E1" to="E2" number="1800" probability="0.5"/>
    <flow id="f_4" begin="0.00" from="-E1" to="-E0" number="1800" probability="0.5"/>
    <flow id="f_5" begin="0.00" from="-E1" to="E3" number="1800" probability="0.5"/>
    <flow id="f_6" begin="0.00" from="-E2" to="-E0" number="1800" probability="0.5"/>
    <flow id="f_7" begin="0.00" from="-E2" to="E3" number="1800" probability="0.5"/>
    <flow id="f_8" begin="0.00" from="-E2" to="E1" number="1800" probability="0.5"/>
    <flow id="f_9" begin="0.00" from="-E3" to="E1" number="1800" probability="0.5"/>
</routes>
