<?xml version="1.0" encoding="UTF-8"?>

<!-- generated on 2025-02-17 19:00:13.587158 by randomTrips.py v1_20_0+0002-343658e7c64
<configuration>
    <net-file value="osm.net.xml.gz"/>
    <output-trip-file value="osm.passenger.trips.xml"/>
    <route-file value="osm.passenger.rou.xml"/>
    <prefix value="veh"/>
    <trip-attributes value="departLane=&quot;best&quot;"/>
    <fringe-start-attributes value="departSpeed=&quot;max&quot;"/>
    <vehicle-class value="passenger"/>
    <lanes value="True"/>
    <fringe-factor value="5"/>
    <allow-fringe.min-length value="1000.0"/>
    <via-edge-types value="highway.motorway,highway.motorway_link,highway.trunk_link,highway.primary_link,highway.secondary_link,highway.tertiary_link"/>
    <min-distance value="300.0"/>
    <min-distance.fringe value="10.0"/>
    <remove-loops value="True"/>
    <validate value="True"/>
    <insertion-density value="12.0"/>
</configuration>
-->

<routes xmlns:xsi="http://www.w3.org/2001/XMLSchema-instance" xsi:noNamespaceSchemaLocation="http://sumo.dlr.de/xsd/routes_file.xsd">
    <vType id="veh_passenger" vClass="passenger"/>
    <trip id="veh0" depart="0.00" from="415878803#0" to="43256407#0" departLane="best" type="veh_passenger" departSpeed="max"/>
    <trip id="veh1" depart="27.34" from="6333764#4" to="-698994093#2" departLane="best" type="veh_passenger"/>
    <trip id="veh2" depart="54.68" from="196779231" to="-541335494#3" departLane="best" type="veh_passenger"/>
    <trip id="veh3" depart="82.02" from="1305513171#0" to="21452694#4" departLane="best" type="veh_passenger"/>
    <trip id="veh4" depart="109.37" from="-520143472#1" to="188434143#0" departLane="best" type="veh_passenger" departSpeed="max"/>
    <trip id="veh5" depart="136.71" from="415876778#0" to="21456366#3" departLane="best" type="veh_passenger"/>
    <trip id="veh6" depart="164.05" from="1310995734" to="21458298#1" departLane="best" type="veh_passenger"/>
    <trip id="veh7" depart="191.39" from="517593873#4" to="-1248973830" departLane="best" type="veh_passenger"/>
    <trip id="veh8" depart="218.73" from="196779226#16" to="1164791347#0" departLane="best" type="veh_passenger"/>
    <trip id="veh9" depart="246.07" from="698994093#1" to="196779226#8" departLane="best" type="veh_passenger"/>
    <trip id="veh10" depart="273.42" from="-698994081#4" to="-698994093#5" departLane="best" type="veh_passenger"/>
    <trip id="veh11" depart="300.76" from="541335494#0" to="21458298#1" departLane="best" type="veh_passenger"/>
    <trip id="veh12" depart="328.10" from="517593873#3" to="541334899#1" departLane="best" type="veh_passenger"/>
    <trip id="veh13" depart="355.44" from="541334899#1" to="27877606#4" departLane="best" type="veh_passenger"/>
    <trip id="veh14" depart="382.78" from="415876786#0" to="-541335494#9" departLane="best" type="veh_passenger" departSpeed="max"/>
    <trip id="veh15" depart="410.12" from="193256682#0" to="196779226#16" departLane="best" type="veh_passenger" departSpeed="max"/>
    <trip id="veh16" depart="437.46" from="-6360234#1" to="196779219" departLane="best" type="veh_passenger" departSpeed="max"/>
    <trip id="veh17" depart="464.81" from="279321232#0" to="201989362#1" departLane="best" type="veh_passenger"/>
    <trip id="veh18" depart="492.15" from="195433863#3" to="698994093#0" departLane="best" type="veh_passenger"/>
    <trip id="veh19" depart="519.49" from="21456366#0" to="517593872#1" departLane="best" type="veh_passenger"/>
    <trip id="veh20" depart="546.83" from="541334900#4" to="559523722#1" departLane="best" type="veh_passenger"/>
    <trip id="veh21" depart="574.17" from="193256682#0" to="-541335494#4" departLane="best" type="veh_passenger" departSpeed="max"/>
    <trip id="veh22" depart="601.51" from="1305513149" to="698994093#2" departLane="best" type="veh_passenger"/>
    <trip id="veh23" depart="628.86" from="6333764#1" to="196779226#4" departLane="best" type="veh_passenger"/>
    <trip id="veh24" depart="656.20" from="21456366#5" to="679682614" departLane="best" type="veh_passenger"/>
    <trip id="veh25" depart="683.54" from="196779228#0" to="195433864#0" departLane="best" type="veh_passenger" departSpeed="max"/>
    <trip id="veh26" depart="710.88" from="-698994091#1" to="279321232#0" departLane="best" type="veh_passenger" departSpeed="max"/>
    <trip id="veh27" depart="738.22" from="43256407#0" to="201989362#3" departLane="best" type="veh_passenger"/>
    <trip id="veh28" depart="765.56" from="-6345181#3" to="201989362#12" departLane="best" type="veh_passenger"/>
    <trip id="veh29" depart="792.91" from="910274492" to="21456366#0" departLane="best" type="veh_passenger"/>
    <trip id="veh30" depart="820.25" from="698994093#6" to="6360234#1" departLane="best" type="veh_passenger"/>
    <trip id="veh31" depart="847.59" from="-27877606#1" to="541334786#0" departLane="best" type="veh_passenger"/>
    <trip id="veh32" depart="874.93" from="415876786#0" to="21456366#10" departLane="best" type="veh_passenger" departSpeed="max"/>
    <trip id="veh33" depart="902.27" from="195433863#3" to="415876778#0" departLane="best" type="veh_passenger"/>
    <trip id="veh34" depart="929.61" from="-698994091#1" to="201989362#5" departLane="best" type="veh_passenger" departSpeed="max"/>
    <trip id="veh35" depart="956.95" from="196779226#1" to="415876778#0" departLane="best" type="veh_passenger"/>
    <trip id="veh36" depart="984.30" from="416108635#0" to="21456366#10" departLane="best" type="veh_passenger" departSpeed="max"/>
    <trip id="veh37" depart="1011.64" from="416108635#0" to="21456366#1" departLane="best" type="veh_passenger" departSpeed="max"/>
    <trip id="veh38" depart="1038.98" from="-27877606#5" to="698994091#0" departLane="best" type="veh_passenger"/>
    <trip id="veh39" depart="1066.32" from="6333764#1" to="698994093#4" departLane="best" type="veh_passenger"/>
    <trip id="veh40" depart="1093.66" from="-698796634#1" to="21452694#4" departLane="best" type="veh_passenger"/>
    <trip id="veh41" depart="1121.00" from="416108635#0" to="1080852438#2" departLane="best" type="veh_passenger" departSpeed="max"/>
    <trip id="veh42" depart="1148.35" from="201989362#2" to="21456366#4" departLane="best" type="veh_passenger"/>
    <trip id="veh43" depart="1175.69" from="195433863#3" to="6360234#1" departLane="best" type="veh_passenger"/>
    <trip id="veh44" depart="1203.03" from="196779231" to="195433863#2" departLane="best" type="veh_passenger"/>
    <trip id="veh45" depart="1230.37" from="21452694#2" to="541334899#1" departLane="best" type="veh_passenger"/>
    <trip id="veh46" depart="1257.71" from="-698994093#2" to="195433864#2" departLane="best" type="veh_passenger"/>
    <trip id="veh47" depart="1285.05" from="193256682#0" to="195433864#0" departLane="best" type="veh_passenger" departSpeed="max"/>
    <trip id="veh48" depart="1312.39" from="-6360234#1" to="30833030#1" departLane="best" type="veh_passenger" departSpeed="max"/>
    <trip id="veh49" depart="1339.74" from="193256682#0" to="698994081#3" departLane="best" type="veh_passenger" departSpeed="max"/>
    <trip id="veh50" depart="1367.08" from="193256682#0" to="416106321#0" departLane="best" type="veh_passenger" departSpeed="max"/>
    <trip id="veh51" depart="1394.42" from="1305513170#0" to="1087818838#1" departLane="best" type="veh_passenger"/>
    <trip id="veh52" depart="1421.76" from="698994081#0" to="21456366#8" departLane="best" type="veh_passenger"/>
    <trip id="veh53" depart="1449.10" from="517593873#3" to="1305513171#0" departLane="best" type="veh_passenger"/>
    <trip id="veh54" depart="1476.44" from="-698994090#3" to="201989362#4" departLane="best" type="veh_passenger"/>
    <trip id="veh55" depart="1503.79" from="541335494#7" to="196779226#1" departLane="best" type="veh_passenger"/>
    <trip id="veh56" depart="1531.13" from="1248973826" to="201989362#7" departLane="best" type="veh_passenger"/>
    <trip id="veh57" depart="1558.47" from="196779231" to="196779226#14" departLane="best" type="veh_passenger"/>
    <trip id="veh58" depart="1585.81" from="193256682#0" to="698994091#0" departLane="best" type="veh_passenger" departSpeed="max"/>
    <trip id="veh59" depart="1613.15" from="201989362#11" to="6360234#1" departLane="best" type="veh_passenger"/>
    <trip id="veh60" depart="1640.49" from="21453126#4" to="-6345181#2" departLane="best" type="veh_passenger"/>
    <trip id="veh61" depart="1667.83" from="910274492" to="6333764#5" departLane="best" type="veh_passenger"/>
    <trip id="veh62" depart="1695.18" from="698994093#6" to="698994091#0" departLane="best" type="veh_passenger"/>
    <trip id="veh63" depart="1722.52" from="201989362#3" to="195433863#3" departLane="best" type="veh_passenger"/>
    <trip id="veh64" depart="1749.86" from="196779228#0" to="-6352335#1" departLane="best" type="veh_passenger" departSpeed="max"/>
    <trip id="veh65" depart="1777.20" from="196779226#8" to="7783135" departLane="best" type="veh_passenger"/>
    <trip id="veh66" depart="1804.54" from="195433863#3" to="617930718" departLane="best" type="veh_passenger"/>
    <trip id="veh67" depart="1831.88" from="698994093#1" to="910274492" departLane="best" type="veh_passenger"/>
    <trip id="veh68" depart="1859.23" from="21456366#0" to="541334786#0" departLane="best" type="veh_passenger"/>
    <trip id="veh69" depart="1886.57" from="1000384427" to="196779226#16" departLane="best" type="veh_passenger"/>
    <trip id="veh70" depart="1913.91" from="698994093#6" to="21456366#9" departLane="best" type="veh_passenger"/>
    <trip id="veh71" depart="1941.25" from="1031963673#0" to="698994093#8" departLane="best" type="veh_passenger"/>
    <trip id="veh72" depart="1968.59" from="-6360234#1" to="1305513170#0" departLane="best" type="veh_passenger" departSpeed="max"/>
    <trip id="veh73" depart="1995.93" from="21456366#7" to="43256407#0" departLane="best" type="veh_passenger"/>
    <trip id="veh74" depart="2023.27" from="193256682#0" to="1078778152#1" departLane="best" type="veh_passenger" departSpeed="max"/>
    <trip id="veh75" depart="2050.62" from="6333764#4" to="196779223#4" departLane="best" type="veh_passenger"/>
    <trip id="veh76" depart="2077.96" from="21456366#7" to="27877606#5" departLane="best" type="veh_passenger"/>
    <trip id="veh77" depart="2105.30" from="196779231" to="21458298#1" departLane="best" type="veh_passenger"/>
    <trip id="veh78" depart="2132.64" from="193256682#0" to="201989362#13" departLane="best" type="veh_passenger" departSpeed="max"/>
    <trip id="veh79" depart="2159.98" from="415876786#0" to="196779226#2" departLane="best" type="veh_passenger" departSpeed="max"/>
    <trip id="veh80" depart="2187.32" from="-6360234#1" to="201989362#9" departLane="best" type="veh_passenger" departSpeed="max"/>
    <trip id="veh81" depart="2214.67" from="-6360234#1" to="195433863#3" departLane="best" type="veh_passenger" departSpeed="max"/>
    <trip id="veh82" depart="2242.01" from="195433863#3" to="698994092#1" departLane="best" type="veh_passenger"/>
    <trip id="veh83" depart="2269.35" from="6333764#2" to="6371277" departLane="best" type="veh_passenger"/>
    <trip id="veh84" depart="2296.69" from="196779226#5" to="1164791348#0" departLane="best" type="veh_passenger"/>
    <trip id="veh85" depart="2324.03" from="541334899#2" to="520143472#1" departLane="best" type="veh_passenger"/>
    <trip id="veh86" depart="2351.37" from="22278223" to="7783135" departLane="best" type="veh_passenger" departSpeed="max"/>
    <trip id="veh87" depart="2378.72" from="415876778#1" to="-1248973830" departLane="best" type="veh_passenger"/>
    <trip id="veh88" depart="2406.06" from="415876778#2" to="698994093#1" departLane="best" type="veh_passenger"/>
    <trip id="veh89" depart="2433.40" from="-698994093#7" to="1031963673#0" departLane="best" type="veh_passenger"/>
    <trip id="veh90" depart="2460.74" from="415878803#0" to="195433863#1" departLane="best" type="veh_passenger" departSpeed="max"/>
    <trip id="veh91" depart="2488.08" from="279321232#0" to="196779226#13" departLane="best" type="veh_passenger"/>
    <trip id="veh92" depart="2515.42" from="201989362#4" to="698994081#3" departLane="best" type="veh_passenger"/>
    <trip id="veh93" depart="2542.76" from="196779231" to="196779226#14" departLane="best" type="veh_passenger"/>
    <trip id="veh94" depart="2570.11" from="279321232#0" to="196779226#12" departLane="best" type="veh_passenger"/>
    <trip id="veh95" depart="2597.45" from="415878803#0" to="21456366#4" departLane="best" type="veh_passenger" departSpeed="max"/>
    <trip id="veh96" depart="2624.79" from="-6360234#1" to="6371277" departLane="best" type="veh_passenger" departSpeed="max"/>
    <trip id="veh97" depart="2652.13" from="6333764#6" to="21456366#3" departLane="best" type="veh_passenger"/>
    <trip id="veh98" depart="2679.47" from="541334899#2" to="21458298#1" departLane="best" type="veh_passenger"/>
    <trip id="veh99" depart="2706.81" from="-7783135" to="1080852438#2" departLane="best" type="veh_passenger" departSpeed="max"/>
    <trip id="veh100" depart="2734.16" from="196779226#12" to="679682614" departLane="best" type="veh_passenger"/>
    <trip id="veh101" depart="2761.50" from="517593872#1" to="6360234#1" departLane="best" type="veh_passenger"/>
    <trip id="veh102" depart="2788.84" from="6333764#5" to="195433863#2" departLane="best" type="veh_passenger"/>
    <trip id="veh103" depart="2816.18" from="193256682#0" to="-698994093#7" departLane="best" type="veh_passenger" departSpeed="max"/>
    <trip id="veh104" depart="2843.52" from="416108635#0" to="6371277" departLane="best" type="veh_passenger" departSpeed="max"/>
    <trip id="veh105" depart="2870.86" from="196779228#0" to="27877606#5" departLane="best" type="veh_passenger" departSpeed="max"/>
    <trip id="veh106" depart="2898.20" from="1000384427" to="698994091#0" departLane="best" type="veh_passenger"/>
    <trip id="veh107" depart="2925.55" from="541335494#8" to="761330890" departLane="best" type="veh_passenger"/>
    <trip id="veh108" depart="2952.89" from="517593873#4" to="6371277" departLane="best" type="veh_passenger"/>
    <trip id="veh109" depart="2980.23" from="-520143472#1" to="541334899#2" departLane="best" type="veh_passenger" departSpeed="max"/>
    <trip id="veh110" depart="3007.57" from="196779226#15" to="698994092#1" departLane="best" type="veh_passenger"/>
    <trip id="veh111" depart="3034.91" from="517593872#2" to="6360234#1" departLane="best" type="veh_passenger"/>
    <trip id="veh112" depart="3062.25" from="517593873#4" to="196779226#13" departLane="best" type="veh_passenger"/>
    <trip id="veh113" depart="3089.60" from="416108635#0" to="1000384427" departLane="best" type="veh_passenger" departSpeed="max"/>
    <trip id="veh114" depart="3116.94" from="559523722#1" to="6352335#1" departLane="best" type="veh_passenger"/>
    <trip id="veh115" depart="3144.28" from="1310995734" to="6333764#2" departLane="best" type="veh_passenger"/>
    <trip id="veh116" depart="3171.62" from="517593872#1" to="195433864#3" departLane="best" type="veh_passenger"/>
    <trip id="veh117" depart="3198.96" from="-520143472#1" to="1305513171#0" departLane="best" type="veh_passenger" departSpeed="max"/>
    <trip id="veh118" depart="3226.30" from="196779226#15" to="6360234#1" departLane="best" type="veh_passenger"/>
    <trip id="veh119" depart="3253.64" from="698994093#5" to="196779226#14" departLane="best" type="veh_passenger"/>
    <trip id="veh120" depart="3280.99" from="30833030#1" to="201989362#14" departLane="best" type="veh_passenger"/>
    <trip id="veh121" depart="3308.33" from="698994081#3" to="1031963673#0" departLane="best" type="veh_passenger"/>
    <trip id="veh122" depart="3335.67" from="698994093#6" to="1273590366" departLane="best" type="veh_passenger"/>
    <trip id="veh123" depart="3363.01" from="698994093#3" to="196779226#13" departLane="best" type="veh_passenger"/>
    <trip id="veh124" depart="3390.35" from="-698994091#1" to="201989362#5" departLane="best" type="veh_passenger" departSpeed="max"/>
    <trip id="veh125" depart="3417.69" from="21456366#9" to="21453126#0" departLane="best" type="veh_passenger"/>
    <trip id="veh126" depart="3445.04" from="196779228#0" to="21456366#9" departLane="best" type="veh_passenger" departSpeed="max"/>
    <trip id="veh127" depart="3472.38" from="195433863#1" to="520143472#1" departLane="best" type="veh_passenger"/>
    <trip id="veh128" depart="3499.72" from="21452694#2" to="541334786#0" departLane="best" type="veh_passenger"/>
    <trip id="veh129" depart="3527.06" from="196779226#4" to="-698994081#3" departLane="best" type="veh_passenger"/>
    <trip id="veh130" depart="3554.40" from="415876778#2" to="196779226#5" departLane="best" type="veh_passenger"/>
    <trip id="veh131" depart="3581.74" from="196779226#12" to="201989362#2" departLane="best" type="veh_passenger"/>
</routes>
