<?xml version="1.0" encoding="UTF-8"?>

<!-- generated on 2025-02-17 19:00:13.975260 by randomTrips.py v1_20_0+0002-343658e7c64
<configuration>
    <net-file value="osm.net.xml.gz"/>
    <output-trip-file value="osm.passenger.trips.xml"/>
    <route-file value="osm.passenger.rou.xml"/>
    <prefix value="veh"/>
    <trip-attributes value="departLane=&quot;best&quot;"/>
    <fringe-start-attributes value="departSpeed=&quot;max&quot;"/>
    <vehicle-class value="passenger"/>
    <lanes value="True"/>
    <fringe-factor value="5"/>
    <allow-fringe.min-length value="1000.0"/>
    <via-edge-types value="highway.motorway,highway.motorway_link,highway.trunk_link,highway.primary_link,highway.secondary_link,highway.tertiary_link"/>
    <min-distance value="300.0"/>
    <min-distance.fringe value="10.0"/>
    <remove-loops value="True"/>
    <validate value="True"/>
    <insertion-density value="12.0"/>
</configuration>
-->

<!-- generated on 2025-02-17 19:00:13 by Eclipse SUMO duarouter Version 1.20.0
<configuration xmlns:xsi="http://www.w3.org/2001/XMLSchema-instance" xsi:noNamespaceSchemaLocation="http://sumo.dlr.de/xsd/duarouterConfiguration.xsd">

    <input>
        <net-file value="osm.net.xml.gz"/>
        <route-files value="osm.passenger.trips.xml"/>
    </input>

    <output>
        <output-file value="osm.passenger.rou.xml"/>
        <alternatives-output value="NUL"/>
    </output>

    <processing>
        <remove-loops value="true"/>
    </processing>

    <time>
        <begin value="0.0"/>
        <end value="3600.0"/>
    </time>

    <report>
        <no-warnings value="true"/>
        <ignore-errors value="true"/>
        <no-step-log value="true"/>
    </report>

</configuration>
-->

<routes xmlns:xsi="http://www.w3.org/2001/XMLSchema-instance" xsi:noNamespaceSchemaLocation="http://sumo.dlr.de/xsd/routes_file.xsd">
    <vType id="veh_passenger" vClass="passenger"/>
    <vehicle id="veh0" type="veh_passenger" depart="0.00" departLane="best" departSpeed="max">
        <route edges="415878803#0 541334786#0 541335494#0 541335494#2 541335494#3 541335494#4 541335494#5 541335494#6 541335494#7 541335494#8 541335494#9 698796634#1 698994081#0 698994081#3 698994081#4 43256407#0"/>
    </vehicle>
    <vehicle id="veh1" type="veh_passenger" depart="27.34" departLane="best">
        <route edges="6333764#4 6333764#5 6333764#6 541334899#0 541334899#1 541334899#2 1248973829#0 541334786#0 -698994093#10 -698994093#8 -698994093#7 -698994093#6 -698994093#5 -698994093#4 -698994093#3 -698994093#2"/>
    </vehicle>
    <vehicle id="veh3" type="veh_passenger" depart="82.02" departLane="best">
        <route edges="1305513171#0 541334900#4 698994092#1 6348015 761330890 761330889#0 1164791347#0 1164791346 1164791348#0 517593873#3 517593873#4 415876778#0 415876778#1 415876778#2 22278225#0 22278225#1 22278225#2 1310995734 196779231 1273590366 21452694#0 21452694#1 21452694#2 21452694#4"/>
    </vehicle>
    <vehicle id="veh5" type="veh_passenger" depart="136.71" departLane="best">
        <route edges="415876778#0 415876778#1 415876778#2 196779219 1031963673#0 415878118#1 1000384427 201989362#0 201989362#1 201989362#2 201989362#3 201989362#4 201989362#5 201989362#6 201989362#7 201989362#9 201989362#11 201989362#12 201989362#13 201989362#14 196779226#1 196779226#2 196779226#3 196779226#4 196779226#5 196779226#8 196779226#12 196779226#13 196779226#14 196779226#15 196779226#16 6352335#1 21456366#0 21456366#1 21456366#3"/>
    </vehicle>
    <vehicle id="veh7" type="veh_passenger" depart="191.39" departLane="best">
        <route edges="517593873#4 415876778#0 415876778#1 415876778#2 196779219 1031963673#0 415878118#1 1000384427 201989362#0 201989362#1 201989362#2 201989362#3 201989362#4 201989362#5 201989362#6 201989362#7 201989362#9 201989362#11 201989362#12 201989362#13 201989362#14 196779223#1 196779223#2 196779223#3 698994093#5 698994093#6 698994093#7 698994093#8 698994093#9 541335494#0 541335494#2 541335494#3 6345181#3 1248973828"/>
    </vehicle>
    <vehicle id="veh8" type="veh_passenger" depart="218.73" departLane="best">
        <route edges="196779226#16 698994090#1 698994090#2 -541335494#9 -541335494#8 -541335494#7 -541335494#6 -541335494#5 -541335494#4 -541335494#3 -541335494#2 -541335494#1 -698994093#10 -698994093#8 -698994093#7 -698994093#6 -698994093#5 -698994093#4 -698994093#3 -698994093#2 -698994093#1 -698994093#0 6348015 761330890 761330889#0 1164791347#0"/>
    </vehicle>
    <vehicle id="veh9" type="veh_passenger" depart="246.07" departLane="best">
        <route edges="698994093#1 698994093#2 698994093#3 698994093#4 698994093#5 698994093#6 698994093#7 698994093#8 698994093#9 188434143#0 196779226#8"/>
    </vehicle>
    <vehicle id="veh10" type="veh_passenger" depart="273.42" departLane="best">
        <route edges="-698994081#4 -698994081#3 -698994081#1 6333764#1 6333764#2 6333764#3 6333764#4 6333764#5 6333764#6 541334899#0 541334899#1 541334899#2 1248973829#0 541334786#0 -698994093#10 -698994093#8 -698994093#7 -698994093#6 -698994093#5"/>
    </vehicle>
    <vehicle id="veh11" type="veh_passenger" depart="300.76" departLane="best">
        <route edges="541335494#0 541335494#2 541335494#3 -6345181#2 -6345181#1 196779226#12 196779226#13 196779226#14 196779226#15 196779226#16 21458298#1"/>
    </vehicle>
    <vehicle id="veh12" type="veh_passenger" depart="328.10" departLane="best">
        <route edges="517593873#3 517593873#4 415876778#0 415876778#1 415876778#2 196779219 1031963673#0 415878118#1 1000384427 201989362#0 201989362#1 201989362#2 201989362#3 201989362#4 201989362#5 201989362#6 201989362#7 201989362#9 201989362#11 201989362#12 201989362#13 201989362#14 196779223#1 196779223#2 196779223#3 698994093#5 698994093#6 698994093#7 698994093#8 698994093#9 541335494#0 541335494#2 541335494#3 6345181#3 541334899#0 541334899#1"/>
    </vehicle>
    <vehicle id="veh13" type="veh_passenger" depart="355.44" departLane="best">
        <route edges="541334899#1 541334899#2 1248973829#0 541334900#0 541334900#2 541334900#4 541334900#7 -6371277 27877606#4"/>
    </vehicle>
    <vehicle id="veh14" type="veh_passenger" depart="382.78" departLane="best" departSpeed="max">
        <route edges="415876786#0 1000384427 201989362#0 201989362#1 201989362#2 201989362#3 201989362#4 201989362#5 201989362#6 201989362#7 201989362#9 201989362#11 201989362#12 201989362#13 201989362#14 196779226#1 196779226#2 196779226#3 196779226#4 196779226#5 196779226#8 196779226#12 196779226#13 196779226#14 196779226#15 196779226#16 698994090#1 698994090#2 -541335494#9"/>
    </vehicle>
    <vehicle id="veh16" type="veh_passenger" depart="437.46" departLane="best" departSpeed="max">
        <route edges="-6360234#1 1305513149 -698994081#4 -698994081#3 -698994081#1 6333764#1 6333764#2 6333764#3 6333764#4 6333764#5 6333764#6 541334899#0 541334899#1 541334899#2 1248973829#0 541334786#0 188434143#0 1078778152#1 195433863#1 195433863#2 195433863#3 679682614 279321232#0 1087818838#1 559523722#1 517593872#1 517593872#2 517593873#3 517593873#4 415876778#0 415876778#1 415876778#2 196779219"/>
    </vehicle>
    <vehicle id="veh17" type="veh_passenger" depart="464.81" departLane="best">
        <route edges="279321232#0 1087818838#1 559523722#1 517593872#1 517593872#2 517593873#3 517593873#4 415876778#0 415876778#1 415876778#2 196779219 1031963673#0 415878118#1 1000384427 201989362#0 201989362#1"/>
    </vehicle>
    <vehicle id="veh18" type="veh_passenger" depart="492.15" departLane="best">
        <route edges="195433863#3 679682614 279321232#0 6406085#1 196779223#1 196779223#2 196779223#3 -698994093#4 -698994093#3 -698994093#2 -698994093#1 -698994093#0"/>
    </vehicle>
    <vehicle id="veh19" type="veh_passenger" depart="519.49" departLane="best">
        <route edges="21456366#0 21456366#1 21456366#3 21456366#4 21456366#5 21456366#6 21456366#7 21456366#8 21456366#9 21456366#10 749905614#0 195433863#1 195433863#2 195433863#3 679682614 279321232#0 1087818838#1 559523722#1 517593872#1"/>
    </vehicle>
    <vehicle id="veh20" type="veh_passenger" depart="546.83" departLane="best">
        <route edges="541334900#4 698994092#1 6348015 761330890 761330889#0 201989362#9 201989362#11 201989362#12 201989362#13 201989362#14 196779226#1 196779226#2 196779226#3 196779226#4 196779226#5 1078778152#1 195433863#1 195433863#2 195433863#3 679682614 279321232#0 1087818838#1 559523722#1"/>
    </vehicle>
    <vehicle id="veh22" type="veh_passenger" depart="601.51" departLane="best">
        <route edges="1305513149 -698994081#4 -698994081#3 -698994081#1 6333764#1 6333764#2 6333764#3 6333764#4 6333764#5 6333764#6 541334899#0 541334899#1 541334899#2 1248973829#0 541334900#0 541334900#2 541334900#4 698994092#1 698994093#0 698994093#1 698994093#2"/>
    </vehicle>
    <vehicle id="veh23" type="veh_passenger" depart="628.86" departLane="best">
        <route edges="6333764#1 6333764#2 6333764#3 6333764#4 6333764#5 6333764#6 541334899#0 541334899#1 541334899#2 1248973829#0 541334786#0 188434143#0 1078778152#1 195433863#1 195433863#2 195433863#3 679682614 279321232#0 6406085#1 196779226#1 196779226#2 196779226#3 196779226#4"/>
    </vehicle>
    <vehicle id="veh24" type="veh_passenger" depart="656.20" departLane="best">
        <route edges="21456366#5 21456366#6 21456366#7 21456366#8 21456366#9 21456366#10 749905614#0 195433863#1 195433863#2 195433863#3 679682614"/>
    </vehicle>
    <vehicle id="veh26" type="veh_passenger" depart="710.88" departLane="best" departSpeed="max">
        <route edges="-698994091#1 -541335494#9 -541335494#8 -541335494#7 -541335494#6 -541335494#5 -541335494#4 -541335494#3 -541335494#2 -541335494#1 188434143#0 1078778152#1 195433863#1 195433863#2 195433863#3 679682614 279321232#0"/>
    </vehicle>
    <vehicle id="veh28" type="veh_passenger" depart="765.56" departLane="best">
        <route edges="-6345181#3 -541335494#3 -541335494#2 -541335494#1 -698994093#10 -698994093#8 -698994093#7 -698994093#6 -698994093#5 -698994093#4 -698994093#3 -698994093#2 -698994093#1 -698994093#0 6348015 761330890 761330889#0 201989362#9 201989362#11 201989362#12"/>
    </vehicle>
    <vehicle id="veh29" type="veh_passenger" depart="792.91" departLane="best">
        <route edges="910274492 415878118#1 1000384427 201989362#0 201989362#1 201989362#2 201989362#3 201989362#4 201989362#5 201989362#6 201989362#7 201989362#9 201989362#11 201989362#12 201989362#13 201989362#14 196779226#1 196779226#2 196779226#3 196779226#4 196779226#5 196779226#8 196779226#12 196779226#13 196779226#14 196779226#15 196779226#16 6352335#1 21456366#0"/>
    </vehicle>
    <vehicle id="veh30" type="veh_passenger" depart="820.25" departLane="best">
        <route edges="698994093#6 698994093#7 698994093#8 698994093#9 541335494#0 541335494#2 541335494#3 6345181#3 1248973828 416106321#0 416106321#1 6360234#1"/>
    </vehicle>
    <vehicle id="veh31" type="veh_passenger" depart="847.59" departLane="best">
        <route edges="27877606#1 27877606#2 27877606#4 27877606#5 698994093#0 698994093#1 698994093#2 698994093#3 698994093#4 698994093#5 698994093#6 698994093#7 698994093#8 698994093#9 541335494#0"/>
    </vehicle>
    <vehicle id="veh32" type="veh_passenger" depart="874.93" departLane="best" departSpeed="max">
        <route edges="415876786#0 1000384427 201989362#0 201989362#1 201989362#2 201989362#3 201989362#4 201989362#5 201989362#6 201989362#7 201989362#9 201989362#11 201989362#12 201989362#13 201989362#14 196779226#1 196779226#2 196779226#3 196779226#4 196779226#5 196779226#8 -1080852438#2 -1080852438#1 21456366#8 21456366#9 21456366#10"/>
    </vehicle>
    <vehicle id="veh33" type="veh_passenger" depart="902.27" departLane="best">
        <route edges="195433863#3 679682614 279321232#0 1087818838#1 559523722#1 517593872#1 517593872#2 517593873#3 517593873#4 415876778#0"/>
    </vehicle>
    <vehicle id="veh34" type="veh_passenger" depart="929.61" departLane="best" departSpeed="max">
        <route edges="-698994091#1 -541335494#9 -541335494#8 -541335494#7 -541335494#6 -541335494#5 -541335494#4 -541335494#3 -541335494#2 -541335494#1 188434143#0 1078778152#1 195433863#1 195433863#2 195433863#3 679682614 279321232#0 1087818838#1 559523722#1 517593872#1 517593872#2 517593873#3 517593873#4 415876778#0 415876778#1 415876778#2 196779219 1031963673#0 415878118#1 1000384427 201989362#0 201989362#1 201989362#2 201989362#3 201989362#4 201989362#5"/>
    </vehicle>
    <vehicle id="veh35" type="veh_passenger" depart="956.95" departLane="best">
        <route edges="196779226#1 196779226#2 196779226#3 196779226#4 196779226#5 1078778152#1 195433863#1 195433863#2 195433863#3 679682614 279321232#0 1087818838#1 559523722#1 517593872#1 517593872#2 517593873#3 517593873#4 415876778#0"/>
    </vehicle>
    <vehicle id="veh36" type="veh_passenger" depart="984.30" departLane="best" departSpeed="max">
        <route edges="416108635#0 -698796634#1 -541335494#9 -541335494#8 -541335494#7 -541335494#6 -541335494#5 -541335494#4 -6345181#2 -6345181#1 -1080852438#2 -1080852438#1 21456366#8 21456366#9 21456366#10"/>
    </vehicle>
    <vehicle id="veh37" type="veh_passenger" depart="1011.64" departLane="best" departSpeed="max">
        <route edges="416108635#0 -698796634#1 -698994090#3 -698994090#1 6352335#1 21456366#0 21456366#1"/>
    </vehicle>
    <vehicle id="veh38" type="veh_passenger" depart="1038.98" departLane="best">
        <route edges="27877606#5 698994093#0 698994093#1 698994093#2 698994093#3 698994093#4 698994093#5 698994093#6 698994093#7 698994093#8 698994093#9 541335494#0 541335494#2 541335494#3 541335494#4 541335494#5 541335494#6 541335494#7 541335494#8 541335494#9 698994091#0"/>
    </vehicle>
    <vehicle id="veh39" type="veh_passenger" depart="1066.32" departLane="best">
        <route edges="6333764#1 6333764#2 6333764#3 6333764#4 6333764#5 6333764#6 541334899#0 541334899#1 541334899#2 1248973829#0 541334900#0 541334900#2 541334900#4 698994092#1 698994093#0 698994093#1 698994093#2 698994093#3 698994093#4"/>
    </vehicle>
    <vehicle id="veh40" type="veh_passenger" depart="1093.66" departLane="best">
        <route edges="-698796634#1 -541335494#9 -541335494#8 -541335494#7 -541335494#6 -541335494#5 -541335494#4 -541335494#3 -541335494#2 -541335494#1 188434143#0 1078778152#1 195433863#1 195433863#2 195433863#3 679682614 279321232#0 1087818838#1 559523722#1 517593872#1 517593872#2 517593873#3 517593873#4 415876778#0 415876778#1 415876778#2 22278225#0 22278225#1 22278225#2 1310995734 196779231 1273590366 21452694#0 21452694#1 21452694#2 21452694#4"/>
    </vehicle>
    <vehicle id="veh41" type="veh_passenger" depart="1121.00" departLane="best" departSpeed="max">
        <route edges="416108635#0 -698796634#1 -541335494#9 -541335494#8 -541335494#7 -541335494#6 -541335494#5 -541335494#4 -6345181#2 -6345181#1 -1080852438#2"/>
    </vehicle>
    <vehicle id="veh42" type="veh_passenger" depart="1148.35" departLane="best">
        <route edges="201989362#2 201989362#3 201989362#4 201989362#5 201989362#6 201989362#7 201989362#9 201989362#11 201989362#12 201989362#13 201989362#14 196779226#1 196779226#2 196779226#3 196779226#4 196779226#5 196779226#8 196779226#12 196779226#13 196779226#14 196779226#15 196779226#16 6352335#1 21456366#0 21456366#1 21456366#3 21456366#4"/>
    </vehicle>
    <vehicle id="veh43" type="veh_passenger" depart="1175.69" departLane="best">
        <route edges="195433863#3 679682614 279321232#0 6406085#1 196779223#1 196779223#2 196779223#3 698994093#5 698994093#6 698994093#7 698994093#8 698994093#9 541335494#0 541335494#2 541335494#3 6345181#3 1248973828 416106321#0 416106321#1 6360234#1"/>
    </vehicle>
    <vehicle id="veh48" type="veh_passenger" depart="1312.39" departLane="best" departSpeed="max">
        <route edges="-6360234#1 1305513149 -698994081#4 -698994081#3 -698994081#1 6333764#1 6333764#2 6333764#3 6333764#4 6333764#5 6333764#6 541334899#0 541334899#1 541334899#2 1248973829#0 541334786#0 188434143#0 1078778152#1 195433863#1 195433863#2 195433863#3 679682614 279321232#0 1087818838#1 559523722#1 517593872#1 517593872#2 517593873#3 517593873#4 415876778#0 415876778#1 415876778#2 196779219 1031963673#0 30833030#1"/>
    </vehicle>
    <vehicle id="veh52" type="veh_passenger" depart="1421.76" departLane="best">
        <route edges="-698994081#1 -698796634#1 -541335494#9 -541335494#8 -541335494#7 -541335494#6 -541335494#5 -541335494#4 -6345181#2 -6345181#1 -1080852438#2 -1080852438#1 21456366#8"/>
    </vehicle>
    <vehicle id="veh53" type="veh_passenger" depart="1449.10" departLane="best">
        <route edges="517593873#3 517593873#4 415876778#0 415876778#1 415876778#2 196779219 1031963673#0 415878118#1 1000384427 201989362#0 201989362#1 201989362#2 201989362#3 201989362#4 201989362#5 201989362#6 201989362#7 201989362#9 201989362#11 201989362#12 201989362#13 201989362#14 196779223#1 196779223#2 196779223#3 196779223#4 1305513171#0"/>
    </vehicle>
    <vehicle id="veh54" type="veh_passenger" depart="1476.44" departLane="best">
        <route edges="-698994090#3 -698994090#1 6352335#1 21456366#0 21456366#1 21456366#3 21456366#4 21456366#5 21456366#6 21456366#7 21456366#8 21456366#9 21456366#10 749905614#0 195433863#1 195433863#2 195433863#3 679682614 279321232#0 1087818838#1 559523722#1 517593872#1 517593872#2 517593873#3 517593873#4 415876778#0 415876778#1 415876778#2 196779219 1031963673#0 415878118#1 1000384427 201989362#0 201989362#1 201989362#2 201989362#3 201989362#4"/>
    </vehicle>
    <vehicle id="veh55" type="veh_passenger" depart="1503.79" departLane="best">
        <route edges="-541335494#7 -541335494#6 -541335494#5 -541335494#4 -541335494#3 -541335494#2 -541335494#1 188434143#0 1078778152#1 195433863#1 195433863#2 195433863#3 679682614 279321232#0 6406085#1 196779226#1"/>
    </vehicle>
    <vehicle id="veh56" type="veh_passenger" depart="1531.13" departLane="best">
        <route edges="1248973826 -1248973830 541334899#0 541334899#1 541334899#2 1248973829#0 541334786#0 188434143#0 1078778152#1 195433863#1 195433863#2 195433863#3 679682614 279321232#0 1087818838#1 559523722#1 517593872#1 517593872#2 517593873#3 517593873#4 415876778#0 415876778#1 415876778#2 196779219 1031963673#0 415878118#1 1000384427 201989362#0 201989362#1 201989362#2 201989362#3 201989362#4 201989362#5 201989362#6 201989362#7"/>
    </vehicle>
    <vehicle id="veh59" type="veh_passenger" depart="1613.15" departLane="best">
        <route edges="201989362#11 201989362#12 201989362#13 201989362#14 196779223#1 196779223#2 196779223#3 698994093#5 698994093#6 698994093#7 698994093#8 698994093#9 541335494#0 541335494#2 541335494#3 6345181#3 1248973828 416106321#0 416106321#1 6360234#1"/>
    </vehicle>
    <vehicle id="veh60" type="veh_passenger" depart="1640.49" departLane="best">
        <route edges="21453126#4 21453126#5 27877606#1 27877606#2 27877606#4 27877606#5 698994093#0 698994093#1 698994093#2 698994093#3 698994093#4 698994093#5 698994093#6 698994093#7 698994093#8 698994093#9 541335494#0 541335494#2 541335494#3 -6345181#2"/>
    </vehicle>
    <vehicle id="veh61" type="veh_passenger" depart="1667.83" departLane="best">
        <route edges="910274492 415878118#1 1000384427 201989362#0 201989362#1 201989362#2 201989362#3 201989362#4 201989362#5 201989362#6 201989362#7 201989362#9 201989362#11 201989362#12 201989362#13 201989362#14 196779226#1 196779226#2 196779226#3 196779226#4 196779226#5 196779226#8 196779226#12 196779226#13 196779226#14 196779226#15 196779226#16 698994090#1 698994090#2 698796634#1 6333764#1 6333764#2 6333764#3 6333764#4 6333764#5"/>
    </vehicle>
    <vehicle id="veh62" type="veh_passenger" depart="1695.18" departLane="best">
        <route edges="698994093#6 698994093#7 698994093#8 698994093#9 541335494#0 541335494#2 541335494#3 541335494#4 541335494#5 541335494#6 541335494#7 541335494#8 541335494#9 698994091#0"/>
    </vehicle>
    <vehicle id="veh63" type="veh_passenger" depart="1722.52" departLane="best">
        <route edges="201989362#3 201989362#4 201989362#5 201989362#6 201989362#7 201989362#9 201989362#11 201989362#12 201989362#13 201989362#14 196779226#1 196779226#2 196779226#3 196779226#4 196779226#5 1078778152#1 195433863#1 195433863#2 195433863#3"/>
    </vehicle>
    <vehicle id="veh64" type="veh_passenger" depart="1749.86" departLane="best" departSpeed="max">
        <route edges="196779228#0 196779228#1 196779228#2 1248973826 416106321#0 416106321#1 1305513149 -698994081#4 -698994081#3 -698994081#1 -698796634#1 -698994090#3 -698994090#1 6352335#1"/>
    </vehicle>
    <vehicle id="veh66" type="veh_passenger" depart="1804.54" departLane="best">
        <route edges="195433863#3 679682614 279321232#0 1087818838#1 559523722#1 517593872#1 517593872#2 517593873#3 517593873#4 415876778#0 415876778#1 415876778#2 22278225#0 22278225#1 22278225#2 1310995734 196779231 1273590366 21452694#0 21452694#1 21452694#2 617930718"/>
    </vehicle>
    <vehicle id="veh68" type="veh_passenger" depart="1859.23" departLane="best">
        <route edges="21456366#0 21456366#1 21456366#3 21456366#4 21456366#5 21456366#6 21456366#7 1080852438#1 1080852438#2 6345181#1 6345181#2 6345181#3 541334899#0 541334899#1 541334899#2 1248973829#0 541334786#0"/>
    </vehicle>
    <vehicle id="veh69" type="veh_passenger" depart="1886.57" departLane="best">
        <route edges="1000384427 201989362#0 201989362#1 201989362#2 201989362#3 201989362#4 201989362#5 201989362#6 201989362#7 201989362#9 201989362#11 201989362#12 201989362#13 201989362#14 196779226#1 196779226#2 196779226#3 196779226#4 196779226#5 196779226#8 196779226#12 196779226#13 196779226#14 196779226#15 196779226#16"/>
    </vehicle>
    <vehicle id="veh70" type="veh_passenger" depart="1913.91" departLane="best">
        <route edges="698994093#6 698994093#7 698994093#8 698994093#9 188434143#0 196779226#8 -1080852438#2 -1080852438#1 21456366#8 21456366#9"/>
    </vehicle>
    <vehicle id="veh71" type="veh_passenger" depart="1941.25" departLane="best">
        <route edges="1031963673#0 415878118#1 1000384427 201989362#0 201989362#1 201989362#2 201989362#3 201989362#4 201989362#5 201989362#6 201989362#7 201989362#9 201989362#11 201989362#12 201989362#13 201989362#14 196779223#1 196779223#2 196779223#3 698994093#5 698994093#6 698994093#7 698994093#8"/>
    </vehicle>
    <vehicle id="veh72" type="veh_passenger" depart="1968.59" departLane="best" departSpeed="max">
        <route edges="-6360234#1 1305513149 -698994081#4 -698994081#3 -698994081#1 6333764#1 6333764#2 6333764#3 6333764#4 6333764#5 6333764#6 541334899#0 541334899#1 541334899#2 1248973829#0 541334900#0 541334900#2 1305513170#0"/>
    </vehicle>
    <vehicle id="veh73" type="veh_passenger" depart="1995.93" departLane="best">
        <route edges="21456366#7 1080852438#1 1080852438#2 196779226#12 196779226#13 196779226#14 196779226#15 196779226#16 698994090#1 698994090#2 698796634#1 698994081#0 698994081#3 698994081#4 43256407#0"/>
    </vehicle>
    <vehicle id="veh75" type="veh_passenger" depart="2050.62" departLane="best">
        <route edges="6333764#4 6333764#5 6333764#6 541334899#0 541334899#1 541334899#2 1248973829#0 541334786#0 -698994093#10 -698994093#8 -698994093#7 -698994093#6 -698994093#5 196779223#4"/>
    </vehicle>
    <vehicle id="veh76" type="veh_passenger" depart="2077.96" departLane="best">
        <route edges="21456366#7 21456366#8 21456366#9 21456366#10 749905614#0 195433863#1 195433863#2 195433863#3 679682614 279321232#0 6406085#1 196779223#1 196779223#2 196779223#3 -698994093#4 -698994093#3 -698994093#2 -698994093#1 -698994093#0 -27877606#5"/>
    </vehicle>
    <vehicle id="veh79" type="veh_passenger" depart="2159.98" departLane="best" departSpeed="max">
        <route edges="415876786#0 1000384427 201989362#0 201989362#1 201989362#2 201989362#3 201989362#4 201989362#5 201989362#6 201989362#7 201989362#9 201989362#11 201989362#12 201989362#13 201989362#14 196779226#1 196779226#2"/>
    </vehicle>
    <vehicle id="veh80" type="veh_passenger" depart="2187.32" departLane="best" departSpeed="max">
        <route edges="-6360234#1 1305513149 -698994081#4 -698994081#3 -698994081#1 6333764#1 6333764#2 6333764#3 6333764#4 6333764#5 6333764#6 541334899#0 541334899#1 541334899#2 1248973829#0 541334900#0 541334900#2 541334900#4 698994092#1 6348015 761330890 761330889#0 201989362#9"/>
    </vehicle>
    <vehicle id="veh81" type="veh_passenger" depart="2214.67" departLane="best" departSpeed="max">
        <route edges="-6360234#1 1305513149 -698994081#4 -698994081#3 -698994081#1 6333764#1 6333764#2 6333764#3 6333764#4 6333764#5 6333764#6 541334899#0 541334899#1 541334899#2 1248973829#0 541334786#0 188434143#0 1078778152#1 195433863#1 195433863#2 195433863#3"/>
    </vehicle>
    <vehicle id="veh82" type="veh_passenger" depart="2242.01" departLane="best">
        <route edges="195433863#3 679682614 279321232#0 6406085#1 196779223#1 196779223#2 196779223#3 196779223#4 1305513171#0 541334900#4 698994092#1"/>
    </vehicle>
    <vehicle id="veh83" type="veh_passenger" depart="2269.35" departLane="best">
        <route edges="6333764#2 6333764#3 6333764#4 6333764#5 6333764#6 541334899#0 541334899#1 541334899#2 1248973829#0 541334900#0 541334900#2 541334900#4 541334900#7 -6371277"/>
    </vehicle>
    <vehicle id="veh84" type="veh_passenger" depart="2296.69" departLane="best">
        <route edges="196779226#5 1078778152#1 195433863#1 195433863#2 195433863#3 679682614 279321232#0 6406085#1 196779223#1 196779223#2 196779223#3 -698994093#4 -698994093#3 -698994093#2 -698994093#1 -698994093#0 6348015 761330890 761330889#0 1164791347#0 1164791346 1164791348#0"/>
    </vehicle>
    <vehicle id="veh85" type="veh_passenger" depart="2324.03" departLane="best">
        <route edges="541334899#2 1248973829#0 541334786#0 188434143#0 1078778152#1 195433863#1 195433863#2 195433863#3 679682614 279321232#0 1087818838#1 559523722#1 517593872#1 517593872#2 517593873#3 517593873#4 415876778#0 415876778#1 415876778#2 22278225#0 22278225#1 22278225#2 1310995734 196779231 1273590366 21452694#0 21452694#1 21452694#2 520143472#1"/>
    </vehicle>
    <vehicle id="veh87" type="veh_passenger" depart="2378.72" departLane="best">
        <route edges="415876778#1 415876778#2 196779219 1031963673#0 415878118#1 1000384427 201989362#0 201989362#1 201989362#2 201989362#3 201989362#4 201989362#5 201989362#6 201989362#7 201989362#9 201989362#11 201989362#12 201989362#13 201989362#14 196779223#1 196779223#2 196779223#3 698994093#5 698994093#6 698994093#7 698994093#8 698994093#9 541335494#0 541335494#2 541335494#3 6345181#3 1248973828"/>
    </vehicle>
    <vehicle id="veh88" type="veh_passenger" depart="2406.06" departLane="best">
        <route edges="415876778#2 196779219 1031963673#0 415878118#1 21453126#0 21453126#2 21453126#3 21453126#4 21453126#5 27877606#1 27877606#2 27877606#4 27877606#5 698994093#0 698994093#1"/>
    </vehicle>
    <vehicle id="veh89" type="veh_passenger" depart="2433.40" departLane="best">
        <route edges="-698994093#7 -698994093#6 -698994093#5 -698994093#4 -698994093#3 -698994093#2 -698994093#1 -698994093#0 6348015 761330890 761330889#0 1164791347#0 1164791346 1164791348#0 517593873#3 517593873#4 415876778#0 415876778#1 415876778#2 196779219 1031963673#0"/>
    </vehicle>
    <vehicle id="veh90" type="veh_passenger" depart="2460.74" departLane="best" departSpeed="max">
        <route edges="415878803#0 541334786#0 188434143#0 1078778152#1 195433863#1"/>
    </vehicle>
    <vehicle id="veh91" type="veh_passenger" depart="2488.08" departLane="best">
        <route edges="279321232#0 6406085#1 196779226#1 196779226#2 196779226#3 196779226#4 196779226#5 196779226#8 196779226#12 196779226#13"/>
    </vehicle>
    <vehicle id="veh92" type="veh_passenger" depart="2515.42" departLane="best">
        <route edges="201989362#4 201989362#5 201989362#6 201989362#7 201989362#9 201989362#11 201989362#12 201989362#13 201989362#14 196779226#1 196779226#2 196779226#3 196779226#4 196779226#5 196779226#8 196779226#12 196779226#13 196779226#14 196779226#15 196779226#16 698994090#1 698994090#2 698796634#1 698994081#0 698994081#3"/>
    </vehicle>
    <vehicle id="veh94" type="veh_passenger" depart="2570.11" departLane="best">
        <route edges="279321232#0 6406085#1 196779226#1 196779226#2 196779226#3 196779226#4 196779226#5 196779226#8 196779226#12"/>
    </vehicle>
    <vehicle id="veh95" type="veh_passenger" depart="2597.45" departLane="best" departSpeed="max">
        <route edges="415878803#0 541334786#0 188434143#0 196779226#8 196779226#12 196779226#13 196779226#14 196779226#15 196779226#16 6352335#1 21456366#0 21456366#1 21456366#3 21456366#4"/>
    </vehicle>
    <vehicle id="veh96" type="veh_passenger" depart="2624.79" departLane="best" departSpeed="max">
        <route edges="-6360234#1 1305513149 -698994081#4 -698994081#3 -698994081#1 6333764#1 6333764#2 6333764#3 6333764#4 6333764#5 6333764#6 541334899#0 541334899#1 541334899#2 1248973829#0 541334900#0 541334900#2 541334900#4 541334900#7 -6371277"/>
    </vehicle>
    <vehicle id="veh97" type="veh_passenger" depart="2652.13" departLane="best">
        <route edges="6333764#6 -6345181#3 -6345181#2 -6345181#1 196779226#12 196779226#13 196779226#14 196779226#15 196779226#16 6352335#1 21456366#0 21456366#1 21456366#3"/>
    </vehicle>
    <vehicle id="veh98" type="veh_passenger" depart="2679.47" departLane="best">
        <route edges="541334899#2 1248973829#0 541334786#0 188434143#0 196779226#8 196779226#12 196779226#13 196779226#14 196779226#15 196779226#16 21458298#1"/>
    </vehicle>
    <vehicle id="veh99" type="veh_passenger" depart="2706.81" departLane="best" departSpeed="max">
        <route edges="-7783135 1248973826 -1248973830 -6345181#3 -6345181#2 -6345181#1 -1080852438#2"/>
    </vehicle>
    <vehicle id="veh100" type="veh_passenger" depart="2734.16" departLane="best">