<?xml version="1.0" encoding="UTF-8"?>

<!-- generated on 2025-03-10 18:43:04 by Eclipse SUMO netedit Version 1.20.0
-->

<routes xmlns:xsi="http://www.w3.org/2001/XMLSchema-instance" xsi:noNamespaceSchemaLocation="http://sumo.dlr.de/xsd/routes_file.xsd">
    <!-- VTypes -->
    <vType id="pt_aerialway" length="2.50" vClass="cable_car" width="2.00" personCapacity="4"/>
    <vType id="pt_bus" vClass="bus"/>
    <vType id="pt_ferry" vClass="ship"/>
    <vType id="pt_light_rail" vClass="rail_urban"/>
    <vType id="pt_minibus" vClass="bus"/>
    <vType id="pt_monorail" vClass="rail_urban"/>
    <vType id="pt_share_taxi" vClass="taxi"/>
    <vType id="pt_subway" vClass="subway"/>
    <vType id="pt_train" vClass="rail"/>
    <vType id="pt_tram" vClass="tram"/>
    <vType id="pt_trolleybus" vClass="bus"/>
    <!-- Routes -->
    <route id="pt_bus_18:0" edges="-22277726#1 26379240#0">
        <stop busStop="-6561896527" duration="20.00" until="45.00"/>
    </route>
    <route id="pt_bus_18:1" edges="-1022312150 22277726#0">
        <stop busStop="6561896528" duration="20.00" until="51.00"/>
    </route>
    <route id="pt_bus_51B:0" edges="25738780#0 1082634545#0 195604807#1" color="57,163,82">
        <stop busStop="6561896531" duration="20.00" until="48.00"/>
    </route>
    <route id="pt_bus_51B:1" edges="771466844#0 771466844#2 292218768#0 26379240#0" color="57,163,82">
        <stop busStop="6561896530" duration="20.00" until="55.00"/>
    </route>
    <route id="pt_bus_51B:2" edges="25738780#0 1082634545#0 195604807#1" color="57,163,82">
        <stop busStop="6561896531" duration="20.00" until="58.00"/>
    </route>
    <route id="pt_bus_51B:3" edges="771466844#0 771466844#2 292218768#0 26379240#0" color="57,163,82">
        <stop busStop="6561896530" duration="20.00" until="56.00"/>
    </route>
    <route id="pt_bus_52:0" edges="771466844#0 771466844#2 292218768#0 25738794#0">
        <stop busStop="6561896529" duration="20.00" until="69.00"/>
    </route>
    <route id="pt_bus_52:1" edges="25738780#0 1082634545#0 195604807#1">
        <stop busStop="6561896531" duration="20.00" until="62.00"/>
    </route>
    <route id="pt_bus_79:0" edges="771466844#0 771466844#2 292218768#0 26379240#0">
        <stop busStop="6561896530" duration="20.00" until="56.00"/>
    </route>
    <route id="pt_bus_79:1" edges="25738780#0 1082634545#0 195604807#1">
        <stop busStop="6561896531" duration="20.00" until="54.00"/>
    </route>
    <route id="pt_bus_7:0" edges="-22277726#1 26379240#0">
        <stop busStop="-6561896527" duration="20.00" until="45.00"/>
    </route>
    <route id="pt_bus_7:1" edges="-1022312150 22277726#0">
        <stop busStop="6561896528" duration="20.00" until="50.00"/>
    </route>
    <route id="pt_bus_800:0" edges="771466844#0 771466844#2 292218768#0 26379240#0">
        <stop busStop="6561896530" duration="20.00" until="56.00"/>
    </route>
    <route id="pt_bus_800:1" edges="-1022312150 1082634545#0 195604807#1">
        <stop busStop="6561896531" duration="20.00" until="66.00"/>
    </route>
    <route id="pt_bus_88:0" edges="771466844#0 771466844#2 292218768#0 26379240#0">
        <stop busStop="6561896530" duration="20.00" until="69.00"/>
    </route>
    <route id="pt_bus_F:0" edges="-1022312150 22277726#0">
        <stop busStop="6561896528" duration="20.00" until="72.00"/>
    </route>
    <route id="pt_bus_N:0" edges="25738780#0 22277726#0">
        <stop busStop="6561896528" duration="20.00" until="52.00"/>
    </route>
    <route id="r_0" edges="25738780#0 26379240#0"/>
    <route id="r_1" edges="25738780#0 1082634545#0"/>
    <route id="r_2" edges="25738780#0 22277726#0"/>
    <route id="r_3" edges="-22277726#1 25738794#0"/>
    <route id="r_4" edges="-22277726#1 26379240#0"/>
    <route id="r_5" edges="-22277726#1 1082634545#0"/>
    <route id="r_6" edges="771466844#0 771466844#2 292218768#0 26379240#0"/>
    <route id="r_7" edges="771466844#0 771466844#2 292218768#0 25738794#0"/>
    <route id="r_8" edges="771466844#0 771466844#2 292218768#0 22277726#0"/>
    <route id="r_9" edges="-1022312150 25738794#0"/>
    <!-- Vehicles, persons and containers (sorted by depart) -->
    <flow id="f_0" begin="0.00" route="r_0" end="100000.00" vehsPerHour="600"/>
    <flow id="f_1" begin="0.00" route="r_1" end="100000.00" vehsPerHour="600"/>
    <flow id="f_2" begin="0.00" route="r_2" end="100000.00" vehsPerHour="600"/>
    <flow id="f_3" begin="0.00" route="r_3" end="100000.00" vehsPerHour="600"/>
    <flow id="f_4" begin="0.00" route="r_4" end="100000.00" vehsPerHour="600"/>
    <flow id="f_5" begin="0.00" route="r_5" end="100000.00" vehsPerHour="600"/>
    <flow id="f_6" begin="0.00" route="r_6" end="100000.00" vehsPerHour="600"/>
    <flow id="f_7" begin="0.00" route="r_7" end="100000.00" vehsPerHour="600"/>
    <flow id="f_8" begin="0.00" route="r_8" end="100000.00" vehsPerHour="600"/>
    <flow id="f_9" begin="0.00" route="r_9" end="100000.00" vehsPerHour="600"/>
    <flow id="pt_bus_51B:0" type="pt_bus" begin="15.00" line="51B:0" route="pt_bus_51B:0" end="100015.00" period="600.00">
        <param key="completeness" value="0.02"/>
        <param key="name" value="AC Transit 51B: Rockridge BART =&gt; Berkeley Marina"/>
    </flow>
    <flow id="pt_bus_51B:1" type="pt_bus" begin="15.00" line="51B:1" route="pt_bus_51B:1" end="100015.00" period="600.00">
        <param key="completeness" value="0.02"/>
        <param key="name" value="AC Transit 51B: Berkeley Marina =&gt; Rockridge BART"/>
    </flow>
    <flow id="pt_bus_52:0" type="pt_bus" begin="20.00" line="52:0" route="pt_bus_52:0" end="100020.00" period="600.00">
        <param key="completeness" value="0.02"/>
        <param key="name" value="AC Transit 52: University Village =&gt; U.C. Campus"/>
    </flow>
    <flow id="pt_bus_52:1" type="pt_bus" begin="52.00" line="52:1" route="pt_bus_52:1" end="100052.00" period="600.00">
        <param key="completeness" value="0.02"/>
        <param key="name" value="AC Transit 52: U.C. Campus =&gt; University Village"/>
    </flow>
    <flow id="pt_bus_18:0" type="pt_bus" begin="119.00" line="18:0" route="pt_bus_18:0" end="100119.00" period="600.00">
        <param key="completeness" value="0.01"/>
        <param key="name" value="AC Transit 18: University Village =&gt; Lake Merritt BART"/>
    </flow>
    <flow id="pt_bus_18:1" type="pt_bus" begin="131.00" line="18:1" route="pt_bus_18:1" end="100131.00" period="600.00">
        <param key="completeness" value="0.01"/>
        <param key="name" value="AC Transit 18: Lake Merritt BART =&gt; University Village"/>
    </flow>
    <flow id="pt_bus_51B:2" type="pt_bus" begin="132.00" line="51B:2" route="pt_bus_51B:2" end="100132.00" period="600.00">
        <param key="completeness" value="0.02"/>
        <param key="name" value="AC Transit 51B: Rockridge BART =&gt; Berkeley Amtrak"/>
    </flow>
    <flow id="pt_bus_51B:3" type="pt_bus" begin="133.00" line="51B:3" route="pt_bus_51B:3" end="100133.00" period="600.00">
        <param key="completeness" value="0.02"/>
        <param key="name" value="AC Transit 51B: Berkeley Amtrak =&gt; Rockridge BART"/>
    </flow>
    <flow id="pt_bus_88:0" type="pt_bus" begin="165.00" line="88:0" route="pt_bus_88:0" end="100165.00" period="600.00">
        <param key="completeness" value="0.01"/>
        <param key="name" value="AC Transit 88: Lake Merritt BART =&gt; Downtown Berkeley"/>
    </flow>
    <flow id="pt_bus_7:0" type="pt_bus" begin="253.00" line="7:0" route="pt_bus_7:0" end="100253.00" period="600.00">
        <param key="completeness" value="0.01"/>
        <param key="name" value="AC Transit 7: El Cerrito del Norte BART =&gt; Emeryville Amtrak"/>
    </flow>
    <flow id="pt_bus_7:1" type="pt_bus" begin="303.00" line="7:1" route="pt_bus_7:1" end="100303.00" period="600.00">
        <param key="completeness" value="0.01"/>
        <param key="name" value="AC Transit 7: Emeryville Amtrak =&gt; El Cerrito del Norte BART"/>
    </flow>
    <flow id="pt_bus_800:0" type="pt_bus" begin="326.00" line="800:0" route="pt_bus_800:0" end="100326.00" period="1800.00">
        <param key="completeness" value="0.01"/>
        <param key="name" value="AC Transit 800: Richmond BART =&gt; Market &amp; Van Ness"/>
    </flow>
    <flow id="pt_bus_F:0" type="pt_bus" begin="383.00" line="F:0" route="pt_bus_F:0" end="100383.00" period="600.00">
        <param key="completeness" value="0.01"/>
        <param key="name" value="AC Transit F: Salesforce Transit Center =&gt; U.C. Campus"/>
    </flow>
    <flow id="pt_bus_79:0" type="pt_bus" begin="389.00" line="79:0" route="pt_bus_79:0" end="100389.00" period="1800.00">
        <param key="completeness" value="0.01"/>
        <param key="name" value="AC Transit 79: El Cerrito Plaza BART =&gt; Rockridge BART"/>
    </flow>
    <flow id="pt_bus_79:1" type="pt_bus" begin="406.00" line="79:1" route="pt_bus_79:1" end="100406.00" period="1800.00">
        <param key="completeness" value="0.01"/>
        <param key="name" value="AC Transit 79: Rockridge BART =&gt; El Cerrito Plaza BART"/>
    </flow>
    <flow id="pt_bus_N:0" type="pt_bus" begin="441.00" line="N:0" route="pt_bus_N:0" end="100441.00" period="600.00">
        <param key="completeness" value="0.02"/>
        <param key="name" value="Bear Transit N: Downtown Berkeley BART =&gt; Hearst Mining Circle =&gt; Downtown Berkeley BART"/>
    </flow>
    <flow id="pt_bus_800:1" type="pt_bus" begin="535.00" line="800:1" route="pt_bus_800:1" end="100535.00" period="600.00">
        <param key="completeness" value="0.01"/>
        <param key="name" value="AC Transit 800: Market &amp; Van Ness =&gt; Richmond BART"/>
    </flow>
</routes>
