<?xml version="1.0" encoding="UTF-8"?>

<!-- generated on 2025-04-08 16:28:27 by Eclipse SUMO netedit Version 1.20.0
-->

<routes xmlns:xsi="http://www.w3.org/2001/XMLSchema-instance" xsi:noNamespaceSchemaLocation="http://sumo.dlr.de/xsd/routes_file.xsd">
    <!-- VTypes -->
    <vType id="pt_aerialway" length="2.50" vClass="cable_car" width="2.00" personCapacity="4"/>
    <vType id="pt_bus" vClass="bus"/>
    <vType id="pt_ferry" vClass="ship"/>
    <vType id="pt_light_rail" vClass="rail_urban"/>
    <vType id="pt_minibus" vClass="bus"/>
    <vType id="pt_monorail" vClass="rail_urban"/>
    <vType id="pt_share_taxi" vClass="taxi"/>
    <vType id="pt_subway" vClass="subway"/>
    <vType id="pt_train" vClass="rail"/>
    <vType id="pt_tram" vClass="tram"/>
    <vType id="pt_trolleybus" vClass="bus"/>
    <!-- Vehicles, persons and containers (sorted by depart) -->
    <flow id="f_0" begin="0.00" from="-22277726#1" to="1082634545#0" end="400000.00" vehsPerHour="100"/>
    <flow id="f_1" type="pt_bus" begin="0.00" departPos="0.00" from="-22277726#1" to="26379240#0" end="400000.00" vehsPerHour="30"/>
    <flow id="f_10" begin="0.00" from="-1022312150" to="25738794#0" end="400000.00" vehsPerHour="75"/>
    <flow id="f_11" begin="0.00" from="-1022312150" to="22277726#0" end="400000.00" vehsPerHour="150"/>
    <flow id="f_12" type="pt_bus" begin="0.00" from="-1022312150" to="22277726#0" end="400000.00" vehsPerHour="30"/>
    <flow id="f_13" type="pt_bus" begin="0.00" from="771466844#2" to="26379240#0" end="400000.00" vehsPerHour="30"/>
    <flow id="f_2" begin="0.00" from="-22277726#1" to="26379240#0" end="400000.00" vehsPerHour="100"/>
    <flow id="f_3" begin="0.00" from="25738780#0" to="22277726#0" end="400000.00" vehsPerHour="40"/>
    <flow id="f_4" begin="0.00" from="25738780#0" to="1082634545#0" end="400000.00" vehsPerHour="75"/>
    <flow id="f_5" begin="0.00" from="25738780#0" to="26379240#0" end="400000.00" vehsPerHour="100"/>
    <flow id="f_6" type="pt_bus" begin="0.00" from="25738780#0" to="26379240#0" end="400000.00" vehsPerHour="30"/>
    <flow id="f_7" begin="0.00" from="771466844#2" to="22277726#0" end="400000.00" vehsPerHour="150"/>
    <flow id="f_8" begin="0.00" from="771466844#2" to="26379240#0" end="400000.00" vehsPerHour="150"/>
    <flow id="f_9" begin="0.00" from="771466844#2" to="25738794#0" end="400000.00" vehsPerHour="75"/>
</routes>
