<?xml version="1.0" encoding="UTF-8"?>

<!-- generated on 2025-02-25 21:34:00.905615 by randomTrips.py UNKNOWN
<configuration>
    <net-file value="C:\Users\Anson\OneDrive\002_UCB\04_ENGIN296\20241022\ai-for-traffic\Berkeley_Network_Junction\osm.net.xml.gz"/>
    <output-trip-file value="pedestrians.trips.xml"/>
    <route-file value="pedestrians.rou.xml"/>
    <pedestrians value="True"/>
    <max-distance value="500.0"/>
    <period value="50.0"/>
</configuration>
-->

<routes xmlns:xsi="http://www.w3.org/2001/XMLSchema-instance" xsi:noNamespaceSchemaLocation="http://sumo.dlr.de/xsd/routes_file.xsd">
    <person id="0" depart="0.00">
        <walk from="1078778153#0" to="-1305513183"/>
    </person>
    <person id="1" depart="50.00">
        <walk from="1032757240#1" to="1032757237#1"/>
    </person>
    <person id="2" depart="100.00">
        <walk from="1305513147#1" to="1278116895"/>
    </person>
    <person id="3" depart="150.00">
        <walk from="417682515#1" to="1032757235#2"/>
    </person>
    <person id="4" depart="200.00">
        <walk from="1032757253#0" to="1032757233"/>
    </person>
    <person id="5" depart="250.00">
        <walk from="1032757237#1" to="1032757255"/>
    </person>
    <person id="6" depart="300.00">
        <walk from="1032757233" to="1032757237#0"/>
    </person>
    <person id="7" depart="350.00">
        <walk from="1080852434" to="1032757256#1"/>
    </person>
    <person id="8" depart="400.00">
        <walk from="1032757237#1" to="1034706074#0"/>
    </person>
    <person id="9" depart="450.00">
        <walk from="1305513183" to="-1305513183"/>
    </person>
    <person id="10" depart="500.00">
        <walk from="1305513183" to="1278116897"/>
    </person>
    <person id="11" depart="550.00">
        <walk from="1032757251" to="1032757236#1"/>
    </person>
    <person id="12" depart="600.00">
        <walk from="428833984#1" to="1032757251"/>
    </person>
    <person id="13" depart="650.00">
        <walk from="1032757235#2" to="1032757235#2"/>
    </person>
    <person id="14" depart="700.00">
        <walk from="279321236#1" to="1078778152#1"/>
    </person>
    <person id="15" depart="750.00">
        <walk from="1305513183" to="1305513147#1"/>
    </person>
    <person id="16" depart="800.00">
        <walk from="1032757256#0" to="428833984#1"/>
    </person>
    <person id="17" depart="850.00">
        <walk from="1032757252#0" to="1032757256#1"/>
    </person>
    <person id="18" depart="900.00">
        <walk from="279321236#0" to="1078778153#0"/>
    </person>
    <person id="19" depart="950.00">
        <walk from="279321236#1" to="1034706074#0"/>
    </person>
    <person id="20" depart="1000.00">
        <walk from="1278116897" to="1032757233"/>
    </person>
    <person id="21" depart="1050.00">
        <walk from="1032757237#1" to="1032757241#0"/>
    </person>
    <person id="22" depart="1100.00">
        <walk from="1032757235#2" to="1032757240#0"/>
    </person>
    <person id="23" depart="1150.00">
        <walk from="1032757235#2" to="1032757240#1"/>
    </person>
    <person id="24" depart="1200.00">
        <walk from="1078778153#0" to="1032757252#0"/>
    </person>
    <person id="25" depart="1250.00">
        <walk from="1032757252#0" to="1032757237#1"/>
    </person>
    <person id="26" depart="1300.00">
        <walk from="1032757240#1" to="428833984#0"/>
    </person>
    <person id="27" depart="1350.00">
        <walk from="1080852434" to="1078778152#1"/>
    </person>
    <person id="28" depart="1400.00">
        <walk from="1032757236#1" to="1305513147#1"/>
    </person>
    <person id="29" depart="1450.00">
        <walk from="1032757236#1" to="1032757252#0"/>
    </person>
    <person id="30" depart="1500.00">
        <walk from="669491501" to="1078778153#0"/>
    </person>
    <person id="31" depart="1550.00">
        <walk from="1032757256#1" to="1278116895"/>
    </person>
    <person id="32" depart="1600.00">
        <walk from="279321236#0" to="1305513147#3"/>
    </person>
    <person id="33" depart="1650.00">
        <walk from="1032757237#1" to="1032757233"/>
    </person>
    <person id="34" depart="1700.00">
        <walk from="1032757241#1" to="1032757240#1"/>
    </person>
    <person id="35" depart="1750.00">
        <walk from="1032757237#1" to="428833984#0"/>
    </person>
    <person id="36" depart="1800.00">
        <walk from="417682515#1" to="1032757241#1"/>
    </person>
    <person id="37" depart="1850.00">
        <walk from="1080852434" to="1032757252#1"/>
    </person>
    <person id="38" depart="1900.00">
        <walk from="417682515#2" to="1032757253#1"/>
    </person>
    <person id="39" depart="1950.00">
        <walk from="1032757240#1" to="1032757240#0"/>
    </person>
    <person id="40" depart="2000.00">
        <walk from="1032757256#1" to="1032757240#1"/>
    </person>
    <person id="41" depart="2050.00">
        <walk from="1034706074#0" to="417682515#2"/>
    </person>
    <person id="42" depart="2100.00">
        <walk from="1032757252#1" to="1032757237#1"/>
    </person>
    <person id="43" depart="2150.00">
        <walk from="669491501" to="1032757255"/>
    </person>
    <person id="44" depart="2200.00">
        <walk from="1032757235#2" to="1032757233"/>
    </person>
    <person id="45" depart="2250.00">
        <walk from="1032757235#3" to="1078778153#0"/>
    </person>
    <person id="46" depart="2300.00">
        <walk from="1305513147#3" to="1032757253#0"/>
    </person>
    <person id="47" depart="2350.00">
        <walk from="1032757235#1" to="1032757252#0"/>
    </person>
    <person id="48" depart="2400.00">
        <walk from="669491501" to="1032757256#0"/>
    </person>
    <person id="49" depart="2450.00">
        <walk from="428833984#1" to="279321236#1"/>
    </person>
    <person id="50" depart="2500.00">
        <walk from="-1305513183" to="1305513147#1"/>
    </person>
    <person id="51" depart="2550.00">
        <walk from="1278116895" to="1032757256#0"/>
    </person>
    <person id="52" depart="2600.00">
        <walk from="1032757240#1" to="1078778153#0"/>
    </person>
    <person id="53" depart="2650.00">
        <walk from="1032757235#3" to="1032757253#0"/>
    </person>
    <person id="54" depart="2700.00">
        <walk from="1032757253#1" to="428833984#1"/>
    </person>
    <person id="55" depart="2750.00">
        <walk from="417682515#1" to="1032757240#1"/>
    </person>
    <person id="56" depart="2800.00">
        <walk from="1032757255" to="1032757236#1"/>
    </person>
    <person id="57" depart="2850.00">
        <walk from="417682515#2" to="279321236#1"/>
    </person>
    <person id="58" depart="2900.00">
        <walk from="1032757241#0" to="1078778153#0"/>
    </person>
    <person id="59" depart="2950.00">
        <walk from="1078778152#1" to="1032757236#0"/>
    </person>
    <person id="60" depart="3000.00">
        <walk from="1305513147#2" to="1032757256#1"/>
    </person>
    <person id="61" depart="3050.00">
        <walk from="1305513147#3" to="1032757256#0"/>
    </person>
    <person id="62" depart="3100.00">
        <walk from="-1305513183" to="1032757241#1"/>
    </person>
    <person id="63" depart="3150.00">
        <walk from="-1305513183" to="428833984#0"/>
    </person>
    <person id="64" depart="3200.00">
        <walk from="417682515#1" to="279321236#0"/>
    </person>
    <person id="65" depart="3250.00">
        <walk from="1032757241#0" to="1032757235#1"/>
    </person>
    <person id="66" depart="3300.00">
        <walk from="417682515#1" to="428833984#0"/>
    </person>
    <person id="67" depart="3350.00">
        <walk from="1032757235#2" to="1032757254"/>
    </person>
    <person id="68" depart="3400.00">
        <walk from="1032757235#1" to="1305513147#2"/>
    </person>
    <person id="69" depart="3450.00">
        <walk from="1305513147#2" to="1032757236#0"/>
    </person>
    <person id="70" depart="3500.00">
        <walk from="1032757254" to="1032757256#1"/>
    </person>
    <person id="71" depart="3550.00">
        <walk from="1032757240#1" to="417682515#1"/>
    </person>
</routes>
