<?xml version="1.0" encoding="UTF-8"?>

<!-- generated on 2025-04-05 11:16:30 by Eclipse SUMO netedit Version 1.20.0
-->

<routes xmlns:xsi="http://www.w3.org/2001/XMLSchema-instance" xsi:noNamespaceSchemaLocation="http://sumo.dlr.de/xsd/routes_file.xsd">
    <!-- VTypes -->
    <vType id="Bus" vClass="bus"/>
    <vType id="t_0"/>
    <!-- Vehicles, persons and containers (sorted by depart) -->
    <flow id="f_0" begin="0.00" from="749905614#0" to="195433863#1" end="200000.00" vehsPerHour="300"/>
    <flow id="f_1" begin="0.00" from="1078778152#1" to="195433863#1" end="200000.00" vehsPerHour="300"/>
    <flow id="f_2" begin="0.00" from="1078778152#1" to="195433863#1" end="200000.00" vehsPerHour="300"/>
    <flow id="f_3" type="Bus" begin="0.00" from="749905614#0" to="195433863#1" end="200000.00" vehsPerHour="30"/>
</routes>
