<?xml version="1.0" encoding="UTF-8"?>

<!-- generated on 2025-02-23 13:00:26.545566 by $Id: ptlines2flows.py v1_3_1+0313-ccb31df3eb jakob.erdmann@dlr.de 2019-09-02 13:26:32 +0200 $ v1_20_0+0002-343658e7c64
<configuration>
    <net-file value="C:\Users\Anson\OneDrive\002_UCB\04_ENGIN296\20241022\ai-for-traffic\2025-02-23-13-00-17\osm.net.xml.gz"/>
    <ptlines-file value="C:\Users\Anson\OneDrive\002_UCB\04_ENGIN296\20241022\ai-for-traffic\2025-02-23-13-00-17\osm_ptlines.xml"/>
    <ptstops-file value="C:\Users\Anson\OneDrive\002_UCB\04_ENGIN296\20241022\ai-for-traffic\2025-02-23-13-00-17\osm_stops.add.xml"/>
    <output-file value="C:\Users\Anson\OneDrive\002_UCB\04_ENGIN296\20241022\ai-for-traffic\2025-02-23-13-00-17\osm_pt.rou.xml"/>
    <stopinfos-file value="C:\Users\Anson\OneDrive\002_UCB\04_ENGIN296\20241022\ai-for-traffic\2025-02-23-13-00-17\stopinfos.xml"/>
    <routes-file value="C:\Users\Anson\OneDrive\002_UCB\04_ENGIN296\20241022\ai-for-traffic\2025-02-23-13-00-17\vehroutes.xml"/>
    <trips-file value="C:\Users\Anson\OneDrive\002_UCB\04_ENGIN296\20241022\ai-for-traffic\2025-02-23-13-00-17\trips.trips.xml"/>
    <min-stops value="0"/>
    <extend-to-fringe value="True"/>
    <random-begin value="True"/>
    <seed value="42"/>
    <ignore-errors value="True"/>
    <vtype-prefix value="pt_"/>
    <verbose value="True"/>
</configuration>
-->

<routes xmlns:xsi="http://www.w3.org/2001/XMLSchema-instance" xsi:noNamespaceSchemaLocation="http://sumo.dlr.de/xsd/routes_file.xsd">
    <vType id="pt_bus" vClass="bus" speedFactor="0.95"/>
    <vType id="pt_tram" vClass="tram" speedFactor="1.0"/>
    <vType id="pt_train" vClass="rail"/>
    <vType id="pt_subway" vClass="subway"/>
    <vType id="pt_light_rail" vClass="rail_urban"/>
    <vType id="pt_monorail" vClass="rail_urban"/>
    <vType id="pt_trolleybus" vClass="bus" speedFactor="0.95"/>
    <vType id="pt_minibus" vClass="bus" speedFactor="0.95"/>
    <vType id="pt_share_taxi" vClass="taxi" speedFactor="0.95"/>
    <vType id="pt_aerialway" vClass="cable_car" length="2.5" width="2" personCapacity="4"/>
    <vType id="pt_ferry" vClass="ship"/>
    <trip id="0_bus_51B:0" type="pt_bus" depart="15.0" departLane="best" from="749905614#0" to="195433863#3">
        <stop busStop="6410508155" duration="30"/>  <!-- Bancroft Way & Telegraph Avenue -->
    </trip>
    <trip id="1_bus_51B:1" type="pt_bus" depart="15.0" departLane="best" from="196779226#2" to="196779226#2">
        <stop busStop="6561839361" duration="30"/>  <!-- Durant Avenue & Telegraph Avenue -->
    </trip>
    <trip id="2_bus_52:0" type="pt_bus" depart="17.0" departLane="best" from="749905614#0" to="195433863#3">
        <stop busStop="6364416038" duration="30"/>  <!-- Bancroft Way & Telegraph Avenue -->
    </trip>
    <trip id="3_bus_52:1" type="pt_bus" depart="52.0" departLane="best" from="195433863#3" to="195433863#3">
        <stop busStop="6364416038" duration="30"/>  <!-- Bancroft Way & Telegraph Avenue -->
    </trip>
    <trip id="4_bus_51B:2" type="pt_bus" depart="119.0" departLane="best" from="749905614#0" to="195433863#3">
        <stop busStop="6410508155" duration="30"/>  <!-- Bancroft Way & Telegraph Avenue -->
    </trip>
    <trip id="5_bus_51B:3" type="pt_bus" depart="131.0" departLane="best" from="196779226#2" to="196779226#2">
        <stop busStop="6561839361" duration="30"/>  <!-- Durant Avenue & Telegraph Avenue -->
    </trip>
    <trip id="6_bus_7:0" type="pt_bus" depart="133.0" departLane="best" from="196779226#2" to="196779226#2">
        <stop busStop="6561839361" duration="30"/>  <!-- Durant Avenue & Telegraph Avenue -->
    </trip>
    <trip id="7_bus_7:1" type="pt_bus" depart="165.0" departLane="best" from="749905614#0" to="195433863#3">
        <stop busStop="6410508155" duration="30"/>  <!-- Bancroft Way & Telegraph Avenue -->
    </trip>
    <trip id="8_bus_851:0" type="pt_bus" depart="253.0" departLane="best" from="749905614#0" to="195433863#3">
        <stop busStop="6410508155" duration="30"/>  <!-- Bancroft Way & Telegraph Avenue -->
    </trip>
    <trip id="9_bus_851:1" type="pt_bus" depart="303.0" departLane="best" from="196779226#2" to="196779226#2">
        <stop busStop="6561839361" duration="30"/>  <!-- Durant Avenue & Telegraph Avenue -->
    </trip>
    <trip id="10_bus_36:0" type="pt_bus" depart="383.0" departLane="best" from="196779226#2" to="196779226#2">
        <stop busStop="6561839361" duration="30"/>  <!-- Durant Avenue & Telegraph Avenue -->
    </trip>
    <trip id="11_bus_79:0" type="pt_bus" depart="389.0" departLane="best" from="196779226#2" to="196779226#2">
        <stop busStop="6561839361" duration="30"/>  <!-- Durant Avenue & Telegraph Avenue -->
    </trip>
    <trip id="12_bus_6:0" type="pt_bus" depart="406.0" departLane="best" from="1078778152#1" to="195433863#3">
        <stop busStop="6364416038" duration="30"/>  <!-- Bancroft Way & Telegraph Avenue -->
    </trip>
    <trip id="13_bus_P:0" type="pt_bus" depart="441.0" departLane="best" from="749905614#0" to="195433863#3">
        <stop busStop="6410508155" duration="30"/>  <!-- Bancroft Way & Telegraph Avenue -->
    </trip>
    <trip id="14_bus_N:0" type="pt_bus" depart="535.0" departLane="best" from="749905614#0" to="195433863#3">
        <stop busStop="6410508155" duration="30"/>  <!-- Bancroft Way & Telegraph Avenue -->
    </trip>
</routes>
