<?xml version="1.0" encoding="UTF-8"?>

<!-- generated on 2025-02-24 21:58:15.601166 by osmWebWizard.py v1_20_0+0002-343658e7c64
<configuration>
    <net-file value="C:\Users\Anson\OneDrive\002_UCB\04_ENGIN296\20241022\ai-for-traffic\2025-02-24-21-58-04\osm.net.xml.gz"/>
    <additional-files value="C:\Users\Anson\OneDrive\002_UCB\04_ENGIN296\20241022\ai-for-traffic\2025-02-24-21-58-04\osm_stops.add.xml,C:\Users\Anson\OneDrive\002_UCB\04_ENGIN296\20241022\ai-for-traffic\2025-02-24-21-58-04\osm_pt.rou.xml"/>
    <output-trip-file value="C:\Users\Anson\OneDrive\002_UCB\04_ENGIN296\20241022\ai-for-traffic\2025-02-24-21-58-04\osm.pedestrian.trips.xml"/>
    <route-file value="C:\Users\Anson\OneDrive\002_UCB\04_ENGIN296\20241022\ai-for-traffic\2025-02-24-21-58-04\osm.pedestrian.rou.xml"/>
    <persontrips value="True"/>
    <persontrip.walk-opposite-factor value="0.8"/>
    <prefix value="ped"/>
    <trip-attributes value="modes=&quot;public&quot;"/>
    <vehicle-class value="pedestrian"/>
    <fringe-factor value="1"/>
    <end value="10000.0"/>
    <insertion-density value="10.0"/>
    <duarouter-weights.tls-penalty value="20"/>
</configuration>
-->

<routes xmlns:xsi="http://www.w3.org/2001/XMLSchema-instance" xsi:noNamespaceSchemaLocation="http://sumo.dlr.de/xsd/routes_file.xsd">
    <vType id="ped_pedestrian" vClass="pedestrian"/>
    <person id="ped0" depart="0.00" type="ped_pedestrian">
        <personTrip from="196779226#3" to="-109191200#1" modes="public"/>
    </person>
    <person id="ped1" depart="96.55" type="ped_pedestrian">
        <personTrip from="1032757253#0" to="1032757244#1" modes="public"/>
    </person>
    <person id="ped2" depart="193.10" type="ped_pedestrian">
        <personTrip from="314580834#1" to="26174780" modes="public"/>
    </person>
    <person id="ped3" depart="289.65" type="ped_pedestrian">
        <personTrip from="679682614" to="-766144281" modes="public"/>
    </person>
    <person id="ped4" depart="386.20" type="ped_pedestrian">
        <personTrip from="1078778161#5" to="-1305513182" modes="public"/>
    </person>
    <person id="ped5" depart="482.75" type="ped_pedestrian">
        <personTrip from="1032757242#1" to="1305513147#3" modes="public"/>
    </person>
    <person id="ped6" depart="579.30" type="ped_pedestrian">
        <personTrip from="-1305513182" to="1032757241#0" modes="public"/>
    </person>
    <person id="ped7" depart="675.85" type="ped_pedestrian">
        <personTrip from="196779226#5" to="1305513167" modes="public"/>
    </person>
    <person id="ped8" depart="772.40" type="ped_pedestrian">
        <personTrip from="1032757242#1" to="1305513192" modes="public"/>
    </person>
    <person id="ped9" depart="868.95" type="ped_pedestrian">
        <personTrip from="417682515#0" to="-109191198#1" modes="public"/>
    </person>
    <person id="ped10" depart="965.50" type="ped_pedestrian">
        <personTrip from="417682515#0" to="312023655" modes="public"/>
    </person>
    <person id="ped11" depart="1062.05" type="ped_pedestrian">
        <personTrip from="1078778152#1" to="1032757238#0" modes="public"/>
    </person>
    <person id="ped12" depart="1158.60" type="ped_pedestrian">
        <personTrip from="908588773#0" to="1037276016" modes="public"/>
    </person>
    <person id="ped13" depart="1255.15" type="ped_pedestrian">
        <personTrip from="1032757233" to="1032757233" modes="public"/>
    </person>
    <person id="ped14" depart="1351.70" type="ped_pedestrian">
        <personTrip from="428833983#1" to="1305513194" modes="public"/>
    </person>
    <person id="ped15" depart="1448.25" type="ped_pedestrian">
        <personTrip from="417682515#0" to="314580834#0" modes="public"/>
    </person>
    <person id="ped16" depart="1544.80" type="ped_pedestrian">
        <personTrip from="1305513166#4" to="908588774" modes="public"/>
    </person>
    <person id="ped17" depart="1641.35" type="ped_pedestrian">
        <personTrip from="1078778158#1" to="1305513168#1" modes="public"/>
    </person>
    <person id="ped18" depart="1737.90" type="ped_pedestrian">
        <personTrip from="417682515#3" to="1345306088" modes="public"/>
    </person>
    <person id="ped19" depart="1834.45" type="ped_pedestrian">
        <personTrip from="431330572" to="1305513184#0" modes="public"/>
    </person>
    <person id="ped20" depart="1931.00" type="ped_pedestrian">
        <personTrip from="314580832" to="-1305513184#1" modes="public"/>
    </person>
    <person id="ped21" depart="2027.55" type="ped_pedestrian">
        <personTrip from="1032757248#0" to="1032757254" modes="public"/>
    </person>
    <person id="ped22" depart="2124.10" type="ped_pedestrian">
        <personTrip from="-570334342" to="1032757248#0" modes="public"/>
    </person>
    <person id="ped23" depart="2220.65" type="ped_pedestrian">
        <personTrip from="1032757235#1" to="1032757253#0" modes="public"/>
    </person>
    <person id="ped24" depart="2317.20" type="ped_pedestrian">
        <personTrip from="196779226#2" to="1078778156#1" modes="public"/>
    </person>
    <person id="ped25" depart="2413.75" type="ped_pedestrian">
        <personTrip from="1078778158#0" to="1032757241#2" modes="public"/>
    </person>
    <person id="ped26" depart="2510.30" type="ped_pedestrian">
        <personTrip from="1032757252#1" to="908588770#1" modes="public"/>
    </person>
    <person id="ped27" depart="2606.85" type="ped_pedestrian">
        <personTrip from="196779226#4" to="1305513195#1" modes="public"/>
    </person>
    <person id="ped28" depart="2703.40" type="ped_pedestrian">
        <personTrip from="1032757239" to="314580834#0" modes="public"/>
    </person>
    <person id="ped29" depart="2799.95" type="ped_pedestrian">
        <personTrip from="1032757238#2" to="1078778158#1" modes="public"/>
    </person>
    <person id="ped30" depart="2896.50" type="ped_pedestrian">
        <personTrip from="912619010#1" to="196779226#3" modes="public"/>
    </person>
    <person id="ped31" depart="2993.05" type="ped_pedestrian">
        <personTrip from="1305513168#1" to="279321236#0" modes="public"/>
    </person>
    <person id="ped32" depart="3089.60" type="ped_pedestrian">
        <personTrip from="417682515#5" to="417682507#3" modes="public"/>
    </person>
    <person id="ped33" depart="3186.15" type="ped_pedestrian">
        <personTrip from="1032757248#0" to="-1305513182" modes="public"/>
    </person>
    <person id="ped34" depart="3282.70" type="ped_pedestrian">
        <personTrip from="1034706074#0" to="1032757252#1" modes="public"/>
    </person>
    <person id="ped35" depart="3379.25" type="ped_pedestrian">
        <personTrip from="1032757241#2" to="908588771#0" modes="public"/>
    </person>
    <person id="ped36" depart="3475.80" type="ped_pedestrian">
        <personTrip from="570334342" to="1034706074#0" modes="public"/>
    </person>
    <person id="ped37" depart="3572.35" type="ped_pedestrian">
        <personTrip from="196779226#5" to="1078778161#0" modes="public"/>
    </person>
    <person id="ped38" depart="3668.90" type="ped_pedestrian">
        <personTrip from="908588768#1" to="109191200#1" modes="public"/>
    </person>
    <person id="ped39" depart="3765.45" type="ped_pedestrian">
        <personTrip from="1032757252#0" to="1032757249#0" modes="public"/>
    </person>
    <person id="ped40" depart="3862.00" type="ped_pedestrian">
        <personTrip from="1305513182" to="1032757252#0" modes="public"/>
    </person>
    <person id="ped41" depart="3958.55" type="ped_pedestrian">
        <personTrip from="1305513192" to="766144281" modes="public"/>
    </person>
    <person id="ped42" depart="4055.10" type="ped_pedestrian">
        <personTrip from="1078778161#1" to="1032757242#1" modes="public"/>
    </person>
    <person id="ped43" depart="4151.65" type="ped_pedestrian">
        <personTrip from="912619011" to="1305513164" modes="public"/>
    </person>
    <person id="ped44" depart="4248.20" type="ped_pedestrian">
        <personTrip from="1032757233" to="-1305513184#1" modes="public"/>
    </person>
    <person id="ped45" depart="4344.75" type="ped_pedestrian">
        <personTrip from="1032757235#2" to="196779226#1" modes="public"/>
    </person>
    <person id="ped46" depart="4441.30" type="ped_pedestrian">
        <personTrip from="417682507#5" to="1078778161#6" modes="public"/>
    </person>
    <person id="ped47" depart="4537.85" type="ped_pedestrian">
        <personTrip from="-1305513195#1" to="1078778158#1" modes="public"/>
    </person>
    <person id="ped48" depart="4634.40" type="ped_pedestrian">
        <personTrip from="912619011" to="1305513166#3" modes="public"/>
    </person>
    <person id="ped49" depart="4730.95" type="ped_pedestrian">
        <personTrip from="908588774" to="431330572" modes="public"/>
    </person>
    <person id="ped50" depart="4827.50" type="ped_pedestrian">
        <personTrip from="-109191198#1" to="314580833#1" modes="public"/>
    </person>
    <person id="ped51" depart="4924.05" type="ped_pedestrian">
        <personTrip from="26174780" to="1305513166#4" modes="public"/>
    </person>
    <person id="ped52" depart="5020.60" type="ped_pedestrian">
        <personTrip from="1032757252#1" to="196779226#3" modes="public"/>
    </person>
    <person id="ped53" depart="5117.15" type="ped_pedestrian">
        <personTrip from="1032757235#3" to="1078778162" modes="public"/>
    </person>
    <person id="ped54" depart="5213.70" type="ped_pedestrian">
        <personTrip from="1080852439" to="908588771#1" modes="public"/>
    </person>
    <person id="ped55" depart="5310.25" type="ped_pedestrian">
        <personTrip from="570334342" to="1032757252#0" modes="public"/>
    </person>
    <person id="ped56" depart="5406.80" type="ped_pedestrian">
        <personTrip from="1305513147#3" to="1032757240#0" modes="public"/>
    </person>
    <person id="ped57" depart="5503.35" type="ped_pedestrian">
        <personTrip from="908588768#1" to="570334342" modes="public"/>
    </person>
    <person id="ped58" depart="5599.90" type="ped_pedestrian">
        <personTrip from="1032757255" to="196779226#3" modes="public"/>
    </person>
    <person id="ped59" depart="5696.45" type="ped_pedestrian">
        <personTrip from="1305513195#1" to="1032757238#0" modes="public"/>
    </person>
    <person id="ped60" depart="5793.00" type="ped_pedestrian">
        <personTrip from="417682507#1" to="1305513167" modes="public"/>
    </person>
    <person id="ped61" depart="5889.55" type="ped_pedestrian">
        <personTrip from="417682507#3" to="1305513166#3" modes="public"/>
    </person>
    <person id="ped62" depart="5986.10" type="ped_pedestrian">
        <personTrip from="-1080852432" to="1034706074#1" modes="public"/>
    </person>
    <person id="ped63" depart="6082.65" type="ped_pedestrian">
        <personTrip from="-109191200#0" to="908588770#0" modes="public"/>
    </person>
    <person id="ped64" depart="6179.20" type="ped_pedestrian">
        <personTrip from="669491501" to="417682515#4" modes="public"/>
    </person>
    <person id="ped65" depart="6275.75" type="ped_pedestrian">
        <personTrip from="1032757256#1" to="-1305513194" modes="public"/>
    </person>
    <person id="ped66" depart="6372.30" type="ped_pedestrian">
        <personTrip from="669491501" to="908588771#0" modes="public"/>
    </person>
    <person id="ped67" depart="6468.85" type="ped_pedestrian">
        <personTrip from="-766144281" to="1278116897#2" modes="public"/>
    </person>
    <person id="ped68" depart="6565.40" type="ped_pedestrian">
        <personTrip from="-34361944" to="417682507#1" modes="public"/>
    </person>
    <person id="ped69" depart="6661.95" type="ped_pedestrian">
        <personTrip from="417682507#1" to="1032757236#0" modes="public"/>
    </person>
    <person id="ped70" depart="6758.50" type="ped_pedestrian">
        <personTrip from="1278116897#1" to="1305513168#0" modes="public"/>
    </person>
    <person id="ped71" depart="6855.05" type="ped_pedestrian">
        <personTrip from="1032757252#0" to="570334342" modes="public"/>
    </person>
    <person id="ped72" depart="6951.60" type="ped_pedestrian">
        <personTrip from="1078778161#6" to="1032757241#2" modes="public"/>
    </person>
    <person id="ped73" depart="7048.15" type="ped_pedestrian">
        <personTrip from="1305513167" to="314580834#0" modes="public"/>
    </person>
    <person id="ped74" depart="7144.70" type="ped_pedestrian">
        <personTrip from="1032757241#0" to="1034706074#0" modes="public"/>
    </person>
    <person id="ped75" depart="7241.25" type="ped_pedestrian">
        <personTrip from="912619011" to="196779226#5" modes="public"/>
    </person>
    <person id="ped76" depart="7337.80" type="ped_pedestrian">
        <personTrip from="1080852432" to="1305513166#1" modes="public"/>
    </person>
    <person id="ped77" depart="7434.35" type="ped_pedestrian">
        <personTrip from="1032757235#4" to="1032757244#1" modes="public"/>
    </person>
    <person id="ped78" depart="7530.90" type="ped_pedestrian">
        <personTrip from="1078778152#1" to="1305513192" modes="public"/>
    </person>
    <person id="ped79" depart="7627.45" type="ped_pedestrian">
        <personTrip from="1032757248#0" to="1032757242#1" modes="public"/>
    </person>
    <person id="ped80" depart="7724.00" type="ped_pedestrian">
        <personTrip from="-34361944" to="196779226#2" modes="public"/>
    </person>
    <person id="ped81" depart="7820.55" type="ped_pedestrian">
        <personTrip from="1032757248#0" to="908588768#0" modes="public"/>
    </person>
    <person id="ped82" depart="7917.10" type="ped_pedestrian">
        <personTrip from="431330572" to="-34361944" modes="public"/>
    </person>
    <person id="ped83" depart="8013.65" type="ped_pedestrian">
        <personTrip from="1032757248#1" to="257411611#1" modes="public"/>
    </person>
    <person id="ped84" depart="8110.20" type="ped_pedestrian">
        <personTrip from="1032757241#2" to="1032757236#1" modes="public"/>
    </person>
    <person id="ped85" depart="8206.75" type="ped_pedestrian">
        <personTrip from="908588770#1" to="1305513183" modes="public"/>
    </person>
    <person id="ped86" depart="8303.30" type="ped_pedestrian">
        <personTrip from="1278116895" to="417682507#4" modes="public"/>
    </person>
    <person id="ped87" depart="8399.85" type="ped_pedestrian">
        <personTrip from="417682515#0" to="1032757240#2" modes="public"/>
    </person>
    <person id="ped88" depart="8496.40" type="ped_pedestrian">
        <personTrip from="1032757233" to="1078778162" modes="public"/>
    </person>
    <person id="ped89" depart="8592.95" type="ped_pedestrian">
        <personTrip from="1078778161#6" to="1200740357" modes="public"/>
    </person>
    <person id="ped90" depart="8689.50" type="ped_pedestrian">
        <personTrip from="314580834#0" to="257411611#1" modes="public"/>
    </person>
    <person id="ped91" depart="8786.05" type="ped_pedestrian">
        <personTrip from="912619010#0" to="1032757235#1" modes="public"/>
    </person>
    <person id="ped92" depart="8882.60" type="ped_pedestrian">
        <personTrip from="1078778161#2" to="1078778152#1" modes="public"/>
    </person>
    <person id="ped93" depart="8979.15" type="ped_pedestrian">
        <personTrip from="431330572" to="1032757249#1" modes="public"/>
    </person>
    <person id="ped94" depart="9075.70" type="ped_pedestrian">
        <personTrip from="1032757240#2" to="1080852439" modes="public"/>
    </person>
    <person id="ped95" depart="9172.25" type="ped_pedestrian">
        <personTrip from="1078778161#5" to="1032757253#0" modes="public"/>
    </person>
    <person id="ped96" depart="9268.80" type="ped_pedestrian">
        <personTrip from="1032757249#1" to="908588769#1" modes="public"/>
    </person>
    <person id="ped97" depart="9365.35" type="ped_pedestrian">
        <personTrip from="1080852434" to="431330572" modes="public"/>
    </person>
    <person id="ped98" depart="9461.89" type="ped_pedestrian">
        <personTrip from="1305513168#0" to="-1305513184#1" modes="public"/>
    </person>
    <person id="ped99" depart="9558.44" type="ped_pedestrian">
        <personTrip from="912619011" to="417682515#4" modes="public"/>
    </person>
    <person id="ped100" depart="9654.99" type="ped_pedestrian">
        <personTrip from="908588774" to="908588769#1" modes="public"/>
    </person>
    <person id="ped101" depart="9751.54" type="ped_pedestrian">
        <personTrip from="428833983#1" to="1032757238#2" modes="public"/>
    </person>
    <person id="ped102" depart="9848.09" type="ped_pedestrian">
        <personTrip from="1278116897#2" to="1032757241#2" modes="public"/>
    </person>
    <person id="ped103" depart="9944.64" type="ped_pedestrian">
        <personTrip from="1078778161#1" to="-1305513195#1" modes="public"/>
    </person>
</routes>
