<?xml version="1.0" encoding="UTF-8"?>

<!-- generated on 2025-02-24 21:58:11 by Eclipse SUMO netconvert Version 1.20.0
<configuration xmlns:xsi="http://www.w3.org/2001/XMLSchema-instance" xsi:noNamespaceSchemaLocation="http://sumo.dlr.de/xsd/netconvertConfiguration.xsd">

    <input>
        <type-files value="${SUMO_HOME}/data/typemap/osmNetconvert.typ.xml,${SUMO_HOME}/data/typemap/osmNetconvertUrbanDe.typ.xml,${SUMO_HOME}/data/typemap/osmNetconvertPedestrians.typ.xml,${SUMO_HOME}/data/typemap/osmNetconvertBicycle.typ.xml,${SUMO_HOME}/data/typemap/osmNetconvertAerialway.typ.xml"/>
        <osm-files value="osm_bbox.osm.xml.gz"/>
    </input>

    <output>
        <output-file value="osm.net.xml.gz"/>
        <output.street-names value="true"/>
        <output.original-names value="true"/>
        <ptstop-output value="osm_stops.add.xml"/>
        <ptline-output value="osm_ptlines.xml"/>
    </output>

    <projection>
        <proj.utm value="true"/>
    </projection>

    <processing>
        <geometry.remove value="true"/>
        <roundabouts.guess value="true"/>
    </processing>

    <tls_building>
        <tls.discard-simple value="true"/>
        <tls.join value="true"/>
        <tls.guess-signals value="true"/>
        <tls.default-type value="actuated"/>
    </tls_building>

    <ramp_guessing>
        <ramps.guess value="true"/>
    </ramp_guessing>

    <junctions>
        <junctions.join value="true"/>
        <junctions.corner-detail value="5"/>
    </junctions>

    <pedestrian>
        <crossings.guess value="true"/>
    </pedestrian>

    <railway>
        <railway.topology.repair value="true"/>
    </railway>

    <formats>
        <osm.bike-access value="true"/>
        <osm.sidewalks value="true"/>
    </formats>

</configuration>
-->

<additional xmlns:xsi="http://www.w3.org/2001/XMLSchema-instance" xsi:noNamespaceSchemaLocation="http://sumo.dlr.de/xsd/additional_file.xsd">
    <busStop id="283057547" name="Bancroft Way &amp; Telegraph Avenue" lane="679682614_0" startPos="30.44" endPos="45.44" friendlyPos="true" lines="F 79 36"/>
    <busStop id="6364416038" name="Bancroft Way &amp; Telegraph Avenue" lane="679682614_0" startPos="0.00" endPos="15.00" friendlyPos="true" lines="52 6"/>
    <busStop id="6410508155" name="Bancroft Way &amp; Telegraph Avenue" lane="195433863#1_0" startPos="40.52" endPos="55.52" friendlyPos="true" lines="51B 7 851">
        <access lane="1032757235#1_0" pos="25.80" length="21.87" friendlyPos="1"/>
        <access lane="1032757235#2_0" pos="5.47" length="15.22" friendlyPos="1"/>
        <access lane="1032757241#0_0" pos="0.00" length="10.05" friendlyPos="1"/>
        <access lane="417682515#2_0" pos="10.15" length="13.93" friendlyPos="1"/>
        <access lane="669491501_0" pos="0.00" length="19.91" friendlyPos="1"/>
    </busStop>
    <busStop id="6561839360" name="Durant Avenue &amp; Dana Street" lane="196779226#1_0" startPos="19.94" endPos="34.94" friendlyPos="true" lines="51B 7 851 36 79"/>
    <busStop id="6561839361" name="Durant Avenue &amp; Telegraph Avenue" lane="196779226#8_0" startPos="14.08" endPos="29.08" friendlyPos="true"/>
    <busStop id="6561948718" name="Bancroft Way &amp; Bowditch Street" lane="21456366#0_0" startPos="0.00" endPos="0.20" friendlyPos="true" lines="P N">
        <access lane="1032757238#0_0" pos="0.00" length="13.22" friendlyPos="1"/>
        <access lane="912619008_0" pos="13.18" length="12.78" friendlyPos="1"/>
        <access lane="912619010#0_0" pos="0.20" length="11.28" friendlyPos="1"/>
        <access lane="912619010#1_0" pos="0.00" length="6.19" friendlyPos="1"/>
        <access lane="912619011_0" pos="0.20" length="10.75" friendlyPos="1"/>
    </busStop>
</additional>
