<?xml version="1.0" encoding="UTF-8"?>

<!-- generated on 2025-02-25 21:34:13.439523 by randomTrips.py UNKNOWN
<configuration>
    <net-file value="C:\Users\Anson\OneDrive\002_UCB\04_ENGIN296\20241022\ai-for-traffic\Berkeley_Network_Junction\osm.net.xml.gz"/>
    <output-trip-file value="bikes.trips.xml"/>
    <route-file value="bikes.rou.xml"/>
    <prefix value="bike"/>
    <vehicle-class value="bicycle"/>
    <period value="300.0"/>
</configuration>
-->

<!-- generated on 2025-02-25 21:34:13 by Eclipse SUMO duarouter Version 1.20.0
<configuration xmlns:xsi="http://www.w3.org/2001/XMLSchema-instance" xsi:noNamespaceSchemaLocation="http://sumo.dlr.de/xsd/duarouterConfiguration.xsd">

    <input>
        <net-file value="C:\Users\Anson\OneDrive\002_UCB\04_ENGIN296\20241022\ai-for-traffic\Berkeley_Network_Junction\osm.net.xml.gz"/>
        <route-files value="bikes.trips.xml"/>
    </input>

    <output>
        <output-file value="bikes.rou.xml"/>
        <alternatives-output value="NUL"/>
    </output>

    <time>
        <begin value="0"/>
        <end value="3600.0"/>
    </time>

    <report>
        <no-warnings value="true"/>
        <ignore-errors value="true"/>
        <no-step-log value="true"/>
    </report>

</configuration>
-->

<routes xmlns:xsi="http://www.w3.org/2001/XMLSchema-instance" xsi:noNamespaceSchemaLocation="http://sumo.dlr.de/xsd/routes_file.xsd">
    <vType id="bike_bicycle" vClass="bicycle"/>
    <vehicle id="bike0" type="bike_bicycle" depart="0.00">
        <route edges="195433863#2 195433863#3 -195433863#3 -195433863#2 -195433863#1 195433863#1"/>
    </vehicle>
    <vehicle id="bike1" type="bike_bicycle" depart="300.00">
        <route edges="195433863#1"/>
    </vehicle>
    <vehicle id="bike2" type="bike_bicycle" depart="600.00">
        <route edges="195433863#2 195433863#3"/>
    </vehicle>
    <vehicle id="bike3" type="bike_bicycle" depart="900.00">
        <route edges="749905614#0 195433863#1"/>
    </vehicle>
    <vehicle id="bike4" type="bike_bicycle" depart="1200.00">
        <route edges="195433863#1"/>
    </vehicle>
    <vehicle id="bike5" type="bike_bicycle" depart="1500.00">
        <route edges="1078778152#1 195433863#1 195433863#2"/>
    </vehicle>
    <vehicle id="bike6" type="bike_bicycle" depart="1800.00">
        <route edges="1078778152#1 195433863#1"/>
    </vehicle>
    <vehicle id="bike7" type="bike_bicycle" depart="2100.00">
        <route edges="195433863#2"/>
    </vehicle>
    <vehicle id="bike8" type="bike_bicycle" depart="2400.00">
        <route edges="1078778152#1 195433863#1 195433863#2"/>
    </vehicle>
    <vehicle id="bike9" type="bike_bicycle" depart="2700.00">
        <route edges="749905614#0 195433863#1"/>
    </vehicle>
    <vehicle id="bike10" type="bike_bicycle" depart="3000.00">
        <route edges="749905614#0 195433863#1 195433863#2 195433863#3"/>
    </vehicle>
    <vehicle id="bike11" type="bike_bicycle" depart="3300.00">
        <route edges="195433863#1"/>
    </vehicle>
</routes>
