<?xml version="1.0" encoding="UTF-8"?>

<!-- generated on 2025-02-25 21:34:13.189920 by randomTrips.py UNKNOWN
<configuration>
    <net-file value="C:\Users\Anson\OneDrive\002_UCB\04_ENGIN296\20241022\ai-for-traffic\Berkeley_Network_Junction\osm.net.xml.gz"/>
    <output-trip-file value="bikes.trips.xml"/>
    <route-file value="bikes.rou.xml"/>
    <prefix value="bike"/>
    <vehicle-class value="bicycle"/>
    <period value="300.0"/>
</configuration>
-->

<routes xmlns:xsi="http://www.w3.org/2001/XMLSchema-instance" xsi:noNamespaceSchemaLocation="http://sumo.dlr.de/xsd/routes_file.xsd">
    <vType id="bike_bicycle" vClass="bicycle"/>
    <trip id="bike0" depart="0.00" from="195433863#2" to="195433863#1" type="bike_bicycle"/>
    <trip id="bike1" depart="300.00" from="195433863#1" to="195433863#1" type="bike_bicycle"/>
    <trip id="bike2" depart="600.00" from="195433863#2" to="195433863#3" type="bike_bicycle"/>
    <trip id="bike3" depart="900.00" from="749905614#0" to="195433863#1" type="bike_bicycle"/>
    <trip id="bike4" depart="1200.00" from="195433863#1" to="195433863#1" type="bike_bicycle"/>
    <trip id="bike5" depart="1500.00" from="1078778152#1" to="195433863#2" type="bike_bicycle"/>
    <trip id="bike6" depart="1800.00" from="1078778152#1" to="195433863#1" type="bike_bicycle"/>
    <trip id="bike7" depart="2100.00" from="195433863#2" to="195433863#2" type="bike_bicycle"/>
    <trip id="bike8" depart="2400.00" from="1078778152#1" to="195433863#2" type="bike_bicycle"/>
    <trip id="bike9" depart="2700.00" from="749905614#0" to="195433863#1" type="bike_bicycle"/>
    <trip id="bike10" depart="3000.00" from="749905614#0" to="195433863#3" type="bike_bicycle"/>
    <trip id="bike11" depart="3300.00" from="195433863#1" to="195433863#1" type="bike_bicycle"/>
</routes>
