<?xml version="1.0" encoding="UTF-8"?>

<!-- generated on 2025-02-27 12:11:33 by Eclipse SUMO netedit Version 1.20.0
-->

<routes xmlns:xsi="http://www.w3.org/2001/XMLSchema-instance" xsi:noNamespaceSchemaLocation="http://sumo.dlr.de/xsd/routes_file.xsd">
    <!-- VTypes -->
    <vType id="bike_bicycle" vClass="bicycle"/>
    <vType id="bus_bus" vClass="bus"/>
    <vType id="passenger" vClass="passenger"/>
    <!-- Vehicles, persons and containers (sorted by depart) -->
    <vehicle id="bike0" type="bike_bicycle" depart="0.00">
        <route edges="195433863#2 195433863#3 -195433863#3 -195433863#2 -195433863#1 195433863#1"/>
    </vehicle>
    <person id="0" depart="0.00">
        <walk edges="1078778153#0 1032757255 1032757256#1 1032757253#1 1305513147#3 417682515#2 279321236#1 669491501 1032757241#1 -1305513183"/>
    </person>
    <vehicle id="1" type="passenger" depart="1.00">
        <route edges="195433863#1"/>
    </vehicle>
    <vehicle id="2" type="passenger" depart="2.00">
        <route edges="195433863#2 195433863#3"/>
    </vehicle>
    <vehicle id="3" type="passenger" depart="3.00">
        <route edges="749905614#0 195433863#1"/>
    </vehicle>
    <vehicle id="4" type="passenger" depart="4.00">
        <route edges="195433863#1"/>
    </vehicle>
    <vehicle id="5" type="passenger" depart="5.00">
        <route edges="1078778152#1 195433863#1 195433863#2"/>
    </vehicle>
    <vehicle id="6" type="passenger" depart="6.00">
        <route edges="1078778152#1 195433863#1"/>
    </vehicle>
    <vehicle id="7" type="passenger" depart="7.00">
        <route edges="195433863#2"/>
    </vehicle>
    <vehicle id="8" type="passenger" depart="8.00">
        <route edges="1078778152#1 195433863#1 195433863#2"/>
    </vehicle>
    <vehicle id="9" type="passenger" depart="9.00">
        <route edges="749905614#0 195433863#1"/>
    </vehicle>
    <vehicle id="10" type="passenger" depart="10.00">
        <route edges="749905614#0 195433863#1 195433863#2 195433863#3"/>
    </vehicle>
    <vehicle id="11" type="passenger" depart="11.00">
        <route edges="195433863#1"/>
    </vehicle>
    <vehicle id="12" type="passenger" depart="12.00">
        <route edges="749905614#0 195433863#1 195433863#2"/>
    </vehicle>
    <vehicle id="13" type="passenger" depart="13.00">
        <route edges="1078778152#1 195433863#1"/>
    </vehicle>
    <vehicle id="14" type="passenger" depart="14.00">
        <route edges="749905614#0 195433863#1 195433863#2"/>
    </vehicle>
    <vehicle id="15" type="passenger" depart="15.00">
        <route edges="749905614#0 195433863#1 195433863#2 195433863#3"/>
    </vehicle>
    <vehicle id="16" type="passenger" depart="16.00">
        <route edges="195433863#2 195433863#3"/>
    </vehicle>
    <vehicle id="17" type="passenger" depart="17.00">
        <route edges="195433863#1 195433863#2"/>
    </vehicle>
    <vehicle id="18" type="passenger" depart="18.00">
        <route edges="749905614#0 195433863#1 195433863#2"/>
    </vehicle>
    <vehicle id="19" type="passenger" depart="19.00">
        <route edges="749905614#0 195433863#1 195433863#2"/>
    </vehicle>
    <vehicle id="21" type="passenger" depart="21.00">
        <route edges="1078778152#1 195433863#1"/>
    </vehicle>
    <vehicle id="22" type="passenger" depart="22.00">
        <route edges="1078778152#1 195433863#1"/>
    </vehicle>
    <vehicle id="23" type="passenger" depart="23.00">
        <route edges="1078778152#1 195433863#1"/>
    </vehicle>
    <vehicle id="24" type="passenger" depart="24.00">
        <route edges="195433863#2"/>
    </vehicle>
    <vehicle id="25" type="passenger" depart="25.00">
        <route edges="195433863#1"/>
    </vehicle>
    <vehicle id="26" type="passenger" depart="26.00">
        <route edges="195433863#1 195433863#2 195433863#3"/>
    </vehicle>
    <vehicle id="27" type="passenger" depart="27.00">
        <route edges="195433863#2"/>
    </vehicle>
    <vehicle id="28" type="passenger" depart="28.00">
        <route edges="1078778152#1 195433863#1 195433863#2 195433863#3"/>
    </vehicle>
    <vehicle id="29" type="passenger" depart="29.00">
        <route edges="1078778152#1 195433863#1 195433863#2"/>
    </vehicle>
    <vehicle id="30" type="passenger" depart="30.00">
        <route edges="749905614#0 195433863#1 195433863#2"/>
    </vehicle>
    <vehicle id="31" type="passenger" depart="31.00">
        <route edges="195433863#2 195433863#3"/>
    </vehicle>
    <vehicle id="32" type="passenger" depart="32.00">
        <route edges="749905614#0 195433863#1 195433863#2 195433863#3"/>
    </vehicle>
    <vehicle id="33" type="passenger" depart="33.00">
        <route edges="1078778152#1 195433863#1"/>
    </vehicle>
    <vehicle id="34" type="passenger" depart="34.00">
        <route edges="195433863#1"/>
    </vehicle>
    <vehicle id="35" type="passenger" depart="35.00">
        <route edges="1078778152#1 195433863#1 195433863#2 195433863#3"/>
    </vehicle>
    <vehicle id="36" type="passenger" depart="36.00">
        <route edges="749905614#0 195433863#1"/>
    </vehicle>
    <vehicle id="37" type="passenger" depart="37.00">
        <route edges="195433863#2"/>
    </vehicle>
    <vehicle id="38" type="passenger" depart="38.00">
        <route edges="749905614#0 195433863#1 195433863#2"/>
    </vehicle>
    <vehicle id="39" type="passenger" depart="39.00">
        <route edges="195433863#1"/>
    </vehicle>
    <vehicle id="bus1" type="bus_bus" depart="40.00">
        <route edges="195433863#1"/>
    </vehicle>
    <vehicle id="41" type="passenger" depart="41.00">
        <route edges="195433863#2 195433863#3"/>
    </vehicle>
    <vehicle id="42" type="passenger" depart="42.00">
        <route edges="195433863#1"/>
    </vehicle>
    <vehicle id="43" type="passenger" depart="43.00">
        <route edges="749905614#0 195433863#1 195433863#2"/>
    </vehicle>
    <vehicle id="44" type="passenger" depart="44.00">
        <route edges="1078778152#1 195433863#1"/>
    </vehicle>
    <vehicle id="45" type="passenger" depart="45.00">
        <route edges="1078778152#1 195433863#1 195433863#2"/>
    </vehicle>
    <vehicle id="46" type="passenger" depart="46.00">
        <route edges="749905614#0 195433863#1 195433863#2"/>
    </vehicle>
    <vehicle id="47" type="passenger" depart="47.00">
        <route edges="1078778152#1 195433863#1 195433863#2"/>
    </vehicle>
    <vehicle id="48" type="passenger" depart="48.00">
        <route edges="749905614#0 195433863#1 195433863#2"/>
    </vehicle>
    <vehicle id="49" type="passenger" depart="49.00">
        <route edges="749905614#0 195433863#1 195433863#2 195433863#3"/>
    </vehicle>
    <vehicle id="50" type="passenger" depart="50.00">
        <route edges="1078778152#1 195433863#1 195433863#2 195433863#3"/>
    </vehicle>
    <person id="1" depart="50.00">
        <walk edges="1032757240#1 1032757240#0 1032757253#0 1032757256#1 1032757255 1032757237#1"/>
    </person>
    <vehicle id="51" type="passenger" depart="51.00">
        <route edges="195433863#2"/>
    </vehicle>
    <vehicle id="52" type="passenger" depart="52.00">
        <route edges="195433863#1 195433863#2"/>
    </vehicle>
    <vehicle id="53" type="passenger" depart="53.00">
        <route edges="1078778152#1 195433863#1 195433863#2"/>
    </vehicle>
    <vehicle id="54" type="passenger" depart="54.00">
        <route edges="195433863#1 195433863#2 195433863#3"/>
    </vehicle>
    <vehicle id="55" type="passenger" depart="55.00">
        <route edges="749905614#0 195433863#1"/>
    </vehicle>
    <vehicle id="57" type="passenger" depart="57.00">
        <route edges="749905614#0 195433863#1 195433863#2 195433863#3"/>
    </vehicle>
    <vehicle id="58" type="passenger" depart="58.00">
        <route edges="195433863#1 195433863#2"/>
    </vehicle>
    <vehicle id="60" type="passenger" depart="60.00">
        <route edges="749905614#0 195433863#1 195433863#2"/>
    </vehicle>
    <vehicle id="61" type="passenger" depart="61.00">
        <route edges="749905614#0 195433863#1 195433863#2"/>
    </vehicle>
    <vehicle id="62" type="passenger" depart="62.00">
        <route edges="1078778152#1 195433863#1"/>
    </vehicle>
    <vehicle id="63" type="passenger" depart="63.00">
        <route edges="1078778152#1 195433863#1 195433863#2 195433863#3"/>
    </vehicle>
    <vehicle id="64" type="passenger" depart="64.00">
        <route edges="749905614#0 195433863#1 195433863#2 195433863#3"/>
    </vehicle>
    <vehicle id="65" type="passenger" depart="65.00">
        <route edges="195433863#1"/>
    </vehicle>
    <vehicle id="66" type="passenger" depart="66.00">
        <route edges="749905614#0 195433863#1 195433863#2 195433863#3"/>
    </vehicle>
    <vehicle id="67" type="passenger" depart="67.00">
        <route edges="1078778152#1 195433863#1 195433863#2"/>
    </vehicle>
    <vehicle id="68" type="passenger" depart="68.00">
        <route edges="1078778152#1 195433863#1 195433863#2 195433863#3"/>
    </vehicle>
    <vehicle id="69" type="passenger" depart="69.00">
        <route edges="749905614#0 195433863#1"/>
    </vehicle>
    <vehicle id="70" type="passenger" depart="70.00">
        <route edges="195433863#1 195433863#2"/>
    </vehicle>
    <vehicle id="71" type="passenger" depart="71.00">
        <route edges="195433863#1 195433863#2 195433863#3"/>
    </vehicle>
    <vehicle id="72" type="passenger" depart="72.00">
        <route edges="195433863#1"/>
    </vehicle>
    <vehicle id="73" type="passenger" depart="73.00">
        <route edges="195433863#2 195433863#3"/>
    </vehicle>
    <vehicle id="74" type="passenger" depart="74.00">
        <route edges="1078778152#1 195433863#1"/>
    </vehicle>
    <vehicle id="75" type="passenger" depart="75.00">
        <route edges="749905614#0 195433863#1 195433863#2"/>
    </vehicle>
    <vehicle id="76" type="passenger" depart="76.00">
        <route edges="195433863#1 195433863#2"/>
    </vehicle>
    <vehicle id="77" type="passenger" depart="77.00">
        <route edges="1078778152#1 195433863#1"/>
    </vehicle>
    <vehicle id="78" type="passenger" depart="78.00">
        <route edges="195433863#1 195433863#2"/>
    </vehicle>
    <vehicle id="79" type="passenger" depart="79.00">
        <route edges="1078778152#1 195433863#1"/>
    </vehicle>
    <vehicle id="80" type="passenger" depart="80.00">
        <route edges="1078778152#1 195433863#1 195433863#2"/>
    </vehicle>
    <vehicle id="bus2" type="bus_bus" depart="80.00">
        <route edges="195433863#2 195433863#3"/>
    </vehicle>
    <vehicle id="81" type="passenger" depart="81.00">
        <route edges="1078778152#1 195433863#1 195433863#2 195433863#3"/>
    </vehicle>
    <vehicle id="82" type="passenger" depart="82.00">
        <route edges="749905614#0 195433863#1"/>
    </vehicle>
    <vehicle id="83" type="passenger" depart="83.00">
        <route edges="1078778152#1 195433863#1 195433863#2 195433863#3"/>
    </vehicle>
    <vehicle id="84" type="passenger" depart="84.00">
        <route edges="1078778152#1 195433863#1"/>
    </vehicle>
    <vehicle id="85" type="passenger" depart="85.00">
        <route edges="749905614#0 195433863#1 195433863#2"/>
    </vehicle>
    <vehicle id="86" type="passenger" depart="86.00">
        <route edges="195433863#1 195433863#2 195433863#3"/>
    </vehicle>
    <vehicle id="87" type="passenger" depart="87.00">
        <route edges="749905614#0 195433863#1"/>
    </vehicle>
    <vehicle id="88" type="passenger" depart="88.00">
        <route edges="1078778152#1 195433863#1 195433863#2"/>
    </vehicle>
    <vehicle id="89" type="passenger" depart="89.00">
        <route edges="195433863#1 195433863#2"/>
    </vehicle>
    <vehicle id="90" type="passenger" depart="90.00">
        <route edges="195433863#2 195433863#3"/>
    </vehicle>
    <vehicle id="91" type="passenger" depart="91.00">
        <route edges="749905614#0 195433863#1"/>
    </vehicle>
    <vehicle id="92" type="passenger" depart="92.00">
        <route edges="195433863#1 195433863#2"/>
    </vehicle>
    <vehicle id="93" type="passenger" depart="93.00">
        <route edges="749905614#0 195433863#1"/>
    </vehicle>
    <vehicle id="94" type="passenger" depart="94.00">
        <route edges="1078778152#1 195433863#1 195433863#2"/>
    </vehicle>
    <vehicle id="95" type="passenger" depart="95.00">
        <route edges="195433863#1"/>
    </vehicle>
    <vehicle id="96" type="passenger" depart="96.00">
        <route edges="1078778152#1 195433863#1 195433863#2 195433863#3"/>
    </vehicle>
    <vehicle id="97" type="passenger" depart="97.00">
        <route edges="195433863#1 195433863#2 195433863#3"/>
    </vehicle>
    <vehicle id="99" type="passenger" depart="99.00">
        <route edges="749905614#0 195433863#1 195433863#2 195433863#3"/>
    </vehicle>
    <vehicle id="100" type="passenger" depart="100.00">
        <route edges="749905614#0 195433863#1 195433863#2 195433863#3"/>
    </vehicle>
    <person id="2" depart="100.00">
        <walk edges="1305513147#1 1032757252#1 1032757253#0 1032757240#0 1278116895"/>
    </person>
    <vehicle id="101" type="passenger" depart="101.00">
        <route edges="749905614#0 195433863#1"/>
    </vehicle>
    <vehicle id="102" type="passenger" depart="102.00">
        <route edges="195433863#1"/>
    </vehicle>
    <vehicle id="103" type="passenger" depart="103.00">
        <route edges="195433863#1"/>
    </vehicle>
    <vehicle id="104" type="passenger" depart="104.00">
        <route edges="195433863#1 195433863#2 195433863#3"/>
    </vehicle>
    <vehicle id="105" type="passenger" depart="105.00">
        <route edges="195433863#1 195433863#2 195433863#3"/>
    </vehicle>
    <vehicle id="106" type="passenger" depart="106.00">
        <route edges="195433863#1 195433863#2"/>
    </vehicle>
    <vehicle id="107" type="passenger" depart="107.00">
        <route edges="749905614#0 195433863#1 195433863#2 195433863#3"/>
    </vehicle>
    <vehicle id="108" type="passenger" depart="108.00">
        <route edges="195433863#2 195433863#3"/>
    </vehicle>
    <vehicle id="109" type="passenger" depart="109.00">
        <route edges="1078778152#1 195433863#1"/>
    </vehicle>
    <vehicle id="110" type="passenger" depart="110.00">
        <route edges="749905614#0 195433863#1 195433863#2"/>
    </vehicle>
    <vehicle id="111" type="passenger" depart="111.00">
        <route edges="195433863#2 195433863#3"/>
    </vehicle>
    <vehicle id="112" type="passenger" depart="112.00">
        <route edges="1078778152#1 195433863#1 195433863#2"/>
    </vehicle>
    <vehicle id="113" type="passenger" depart="113.00">
        <route edges="195433863#2 195433863#3"/>
    </vehicle>
    <vehicle id="114" type="passenger" depart="114.00">
        <route edges="1078778152#1 195433863#1 195433863#2 195433863#3"/>
    </vehicle>
    <vehicle id="115" type="passenger" depart="115.00">
        <route edges="1078778152#1 195433863#1"/>
    </vehicle>
    <vehicle id="116" type="passenger" depart="116.00">
        <route edges="195433863#2 195433863#3"/>
    </vehicle>
    <vehicle id="117" type="passenger" depart="117.00">
        <route edges="1078778152#1 195433863#1"/>
    </vehicle>
    <vehicle id="118" type="passenger" depart="118.00">
        <route edges="749905614#0 195433863#1"/>
    </vehicle>
    <vehicle id="119" type="passenger" depart="119.00">
        <route edges="195433863#2"/>
    </vehicle>
    <vehicle id="120" type="passenger" depart="120.00">
        <route edges="195433863#1 195433863#2"/>
    </vehicle>
    <vehicle id="bus3" type="bus_bus" depart="120.00">
        <route edges="749905614#0 195433863#1"/>
    </vehicle>
    <vehicle id="121" type="passenger" depart="121.00">
        <route edges="195433863#2 195433863#3"/>
    </vehicle>
    <vehicle id="122" type="passenger" depart="122.00">
        <route edges="1078778152#1 195433863#1 195433863#2 195433863#3"/>
    </vehicle>
    <vehicle id="123" type="passenger" depart="123.00">
        <route edges="1078778152#1 195433863#1 195433863#2"/>
    </vehicle>
    <vehicle id="125" type="passenger" depart="125.00">
        <route edges="195433863#1 195433863#2 195433863#3"/>
    </vehicle>
    <vehicle id="126" type="passenger" depart="126.00">
        <route edges="1078778152#1 195433863#1 195433863#2"/>
    </vehicle>
    <vehicle id="127" type="passenger" depart="127.00">
        <route edges="749905614#0 195433863#1 195433863#2 195433863#3"/>
    </vehicle>
    <vehicle id="128" type="passenger" depart="128.00">
        <route edges="1078778152#1 195433863#1"/>
    </vehicle>
    <vehicle id="129" type="passenger" depart="129.00">
        <route edges="195433863#1 195433863#2 195433863#3"/>
    </vehicle>
    <vehicle id="130" type="passenger" depart="130.00">
        <route edges="749905614#0 195433863#1 195433863#2 195433863#3"/>
    </vehicle>
    <vehicle id="131" type="passenger" depart="131.00">
        <route edges="195433863#1"/>
    </vehicle>
    <vehicle id="132" type="passenger" depart="132.00">
        <route edges="749905614#0 195433863#1 195433863#2 195433863#3"/>
    </vehicle>
    <vehicle id="133" type="passenger" depart="133.00">
        <route edges="195433863#2 195433863#3"/>
    </vehicle>
    <vehicle id="135" type="passenger" depart="135.00">
        <route edges="749905614#0 195433863#1"/>
    </vehicle>
    <vehicle id="136" type="passenger" depart="136.00">
        <route edges="195433863#2 195433863#3"/>
    </vehicle>
    <vehicle id="137" type="passenger" depart="137.00">
        <route edges="1078778152#1 195433863#1"/>
    </vehicle>
    <vehicle id="138" type="passenger" depart="138.00">
        <route edges="1078778152#1 195433863#1 195433863#2"/>
    </vehicle>
    <vehicle id="139" type="passenger" depart="139.00">
        <route edges="195433863#1 195433863#2"/>
    </vehicle>
    <vehicle id="142" type="passenger" depart="142.00">
        <route edges="195433863#1 195433863#2 195433863#3"/>
    </vehicle>
    <vehicle id="143" type="passenger" depart="143.00">
        <route edges="749905614#0 195433863#1"/>
    </vehicle>
    <vehicle id="144" type="passenger" depart="144.00">
        <route edges="195433863#1"/>
    </vehicle>
    <vehicle id="145" type="passenger" depart="145.00">
        <route edges="1078778152#1 195433863#1 195433863#2 195433863#3"/>
    </vehicle>
    <vehicle id="147" type="passenger" depart="147.00">
        <route edges="195433863#2"/>
    </vehicle>
    <vehicle id="148" type="passenger" depart="148.00">
        <route edges="195433863#1"/>
    </vehicle>
    <vehicle id="149" type="passenger" depart="149.00">
        <route edges="1078778152#1 195433863#1 195433863#2 195433863#3"/>
    </vehicle>
    <vehicle id="150" type="passenger" depart="150.00">
        <route edges="749905614#0 195433863#1 195433863#2"/>
    </vehicle>
    <person id="3" depart="150.00">
        <walk edges="417682515#1 1032757235#3 1032757235#2"/>
    </person>
    <vehicle id="151" type="passenger" depart="151.00">
        <route edges="749905614#0 195433863#1 195433863#2"/>
    </vehicle>
    <vehicle id="152" type="passenger" depart="152.00">
        <route edges="1078778152#1 195433863#1"/>
    </vehicle>
    <vehicle id="153" type="passenger" depart="153.00">
        <route edges="195433863#1 195433863#2 195433863#3"/>
    </vehicle>
    <vehicle id="154" type="passenger" depart="154.00">
        <route edges="749905614#0 195433863#1 195433863#2 195433863#3"/>
    </vehicle>
    <vehicle id="155" type="passenger" depart="155.00">
        <route edges="749905614#0 195433863#1"/>
    </vehicle>
    <vehicle id="156" type="passenger" depart="156.00">
        <route edges="1078778152#1 195433863#1"/>
    </vehicle>
    <vehicle id="157" type="passenger" depart="157.00">
        <route edges="749905614#0 195433863#1 195433863#2 195433863#3"/>
    </vehicle>
    <vehicle id="158" type="passenger" depart="158.00">
        <route edges="195433863#1 195433863#2"/>
    </vehicle>
    <vehicle id="159" type="passenger" depart="159.00">
        <route edges="1078778152#1 195433863#1 195433863#2 195433863#3"/>
    </vehicle>
    <vehicle id="160" type="passenger" depart="160.00">
        <route edges="749905614#0 195433863#1 195433863#2 195433863#3"/>
    </vehicle>
    <vehicle id="bus4" type="bus_bus" depart="160.00">
        <route edges="195433863#1"/>
    </vehicle>
    <vehicle id="161" type="passenger" depart="161.00">
        <route edges="749905614#0 195433863#1 195433863#2 195433863#3"/>
    </vehicle>
    <vehicle id="162" type="passenger" depart="162.00">
        <route edges="1078778152#1 195433863#1 195433863#2 195433863#3"/>
    </vehicle>
    <vehicle id="163" type="passenger" depart="163.00">
        <route edges="195433863#1 195433863#2 195433863#3"/>
    </vehicle>
    <vehicle id="164" type="passenger" depart="164.00">
        <route edges="749905614#0 195433863#1 195433863#2 195433863#3"/>
    </vehicle>
    <vehicle id="165" type="passenger" depart="165.00">
        <route edges="749905614#0 195433863#1"/>
    </vehicle>
    <vehicle id="166" type="passenger" depart="166.00">
        <route edges="749905614#0 195433863#1"/>
    </vehicle>
    <vehicle id="167" type="passenger" depart="167.00">
        <route edges="749905614#0 195433863#1 195433863#2 195433863#3"/>
    </vehicle>
    <vehicle id="168" type="passenger" depart="168.00">
        <route edges="1078778152#1 195433863#1 195433863#2 195433863#3"/>
    </vehicle>
    <vehicle id="169" type="passenger" depart="169.00">
        <route edges="195433863#1"/>
    </vehicle>
    <vehicle id="170" type="passenger" depart="170.00">
        <route edges="749905614#0 195433863#1"/>
    </vehicle>
    <vehicle id="171" type="passenger" depart="171.00">
        <route edges="1078778152#1 195433863#1"/>
    </vehicle>
    <vehicle id="172" type="passenger" depart="172.00">
        <route edges="195433863#1 195433863#2 195433863#3"/>
    </vehicle>
    <vehicle id="173" type="passenger" depart="173.00">
        <route edges="749905614#0 195433863#1"/>
    </vehicle>
    <vehicle id="174" type="passenger" depart="174.00">
        <route edges="195433863#2"/>
    </vehicle>
    <vehicle id="175" type="passenger" depart="175.00">
        <route edges="749905614#0 195433863#1 195433863#2"/>
    </vehicle>
    <vehicle id="176" type="passenger" depart="176.00">
        <route edges="749905614#0 195433863#1"/>
    </vehicle>
    <vehicle id="177" type="passenger" depart="177.00">
        <route edges="749905614#0 195433863#1"/>
    </vehicle>
    <vehicle id="178" type="passenger" depart="178.00">
        <route edges="749905614#0 195433863#1"/>
    </vehicle>
    <vehicle id="179" type="passenger" depart="179.00">
        <route edges="1078778152#1 195433863#1 195433863#2"/>
    </vehicle>
    <vehicle id="181" type="passenger" depart="181.00">
        <route edges="195433863#2"/>
    </vehicle>
    <vehicle id="182" type="passenger" depart="182.00">
        <route edges="195433863#1 195433863#2"/>
    </vehicle>
    <vehicle id="183" type="passenger" depart="183.00">
        <route edges="195433863#1 195433863#2 195433863#3"/>
    </vehicle>
    <vehicle id="184" type="passenger" depart="184.00">
        <route edges="1078778152#1 195433863#1 195433863#2 195433863#3"/>
    </vehicle>
    <vehicle id="185" type="passenger" depart="185.00">
        <route edges="195433863#2 195433863#3"/>
    </vehicle>
    <vehicle id="186" type="passenger" depart="186.00">
        <route edges="195433863#2 195433863#3"/>
    </vehicle>
    <vehicle id="187" type="passenger" depart="187.00">
        <route edges="195433863#1"/>
    </vehicle>
    <vehicle id="189" type="passenger" depart="189.00">
        <route edges="195433863#1 195433863#2 195433863#3"/>
    </vehicle>
    <vehicle id="191" type="passenger" depart="191.00">
        <route edges="195433863#1 195433863#2"/>
    </vehicle>
    <vehicle id="192" type="passenger" depart="192.00">
        <route edges="195433863#1"/>
    </vehicle>
    <vehicle id="193" type="passenger" depart="193.00">
        <route edges="1078778152#1 195433863#1 195433863#2"/>
    </vehicle>
    <vehicle id="194" type="passenger" depart="194.00">
        <route edges="749905614#0 195433863#1 195433863#2 195433863#3"/>
    </vehicle>
    <vehicle id="195" type="passenger" depart="195.00">
        <route edges="749905614#0 195433863#1 195433863#2"/>
    </vehicle>
    <vehicle id="196" type="passenger" depart="196.00">
        <route edges="195433863#1 195433863#2"/>
    </vehicle>
    <vehicle id="197" type="passenger" depart="197.00">
        <route edges="1078778152#1 195433863#1"/>
    </vehicle>
    <vehicle id="198" type="passenger" depart="198.00">
        <route edges="195433863#1 195433863#2"/>
    </vehicle>
    <vehicle id="199" type="passenger" depart="199.00">
        <route edges="195433863#2"/>
    </vehicle>
    <vehicle id="200" type="passenger" depart="200.00">
        <route edges="195433863#1"/>
    </vehicle>
    <vehicle id="bus5" type="bus_bus" depart="200.00">
        <route edges="1078778152#1 195433863#1 195433863#2"/>
    </vehicle>
    <person id="4" depart="200.00">
        <walk edges="1032757253#0 1032757256#1 1032757255 1032757237#1 1032757237#0 1032757233"/>
    </person>
    <vehicle id="201" type="passenger" depart="201.00">
        <route edges="195433863#1 195433863#2 195433863#3"/>
    </vehicle>
    <vehicle id="202" type="passenger" depart="202.00">
        <route edges="749905614#0 195433863#1"/>
    </vehicle>
    <vehicle id="203" type="passenger" depart="203.00">
        <route edges="1078778152#1 195433863#1 195433863#2"/>
    </vehicle>
    <vehicle id="204" type="passenger" depart="204.00">
        <route edges="195433863#2"/>
    </vehicle>
    <vehicle id="205" type="passenger" depart="205.00">
        <route edges="749905614#0 195433863#1 195433863#2 195433863#3"/>
    </vehicle>
    <vehicle id="207" type="passenger" depart="207.00">
        <route edges="1078778152#1 195433863#1"/>
    </vehicle>
    <vehicle id="208" type="passenger" depart="208.00">
        <route edges="1078778152#1 195433863#1 195433863#2"/>
    </vehicle>
    <vehicle id="209" type="passenger" depart="209.00">
        <route edges="749905614#0 195433863#1"/>
    </vehicle>
    <vehicle id="210" type="passenger" depart="210.00">
        <route edges="195433863#1 195433863#2"/>
    </vehicle>
    <vehicle id="211" type="passenger" depart="211.00">
        <route edges="1078778152#1 195433863#1 195433863#2 195433863#3"/>
    </vehicle>
    <vehicle id="212" type="passenger" depart="212.00">
        <route edges="195433863#1"/>
    </vehicle>
    <vehicle id="214" type="passenger" depart="214.00">
        <route edges="749905614#0 195433863#1 195433863#2 195433863#3"/>
    </vehicle>
    <vehicle id="215" type="passenger" depart="215.00">
        <route edges="1078778152#1 195433863#1 195433863#2"/>
    </vehicle>
    <vehicle id="216" type="passenger" depart="216.00">
        <route edges="1078778152#1 195433863#1 195433863#2 195433863#3"/>
    </vehicle>
    <vehicle id="218" type="passenger" depart="218.00">
        <route edges="1078778152#1 195433863#1 195433863#2 195433863#3"/>
    </vehicle>
    <vehicle id="219" type="passenger" depart="219.00">
        <route edges="195433863#1 195433863#2 195433863#3"/>
    </vehicle>
    <vehicle id="220" type="passenger" depart="220.00">
        <route edges="195433863#2 195433863#3"/>
    </vehicle>
    <vehicle id="221" type="passenger" depart="221.00">
        <route edges="195433863#2 195433863#3"/>
    </vehicle>
    <vehicle id="222" type="passenger" depart="222.00">
        <route edges="749905614#0 195433863#1 195433863#2"/>
    </vehicle>
    <vehicle id="223" type="passenger" depart="223.00">
        <route edges="195433863#2"/>
    </vehicle>
    <vehicle id="224" type="passenger" depart="224.00">
        <route edges="749905614#0 195433863#1 195433863#2"/>
    </vehicle>
    <vehicle id="225" type="passenger" depart="225.00">
        <route edges="749905614#0 195433863#1 195433863#2 195433863#3"/>
    </vehicle>
    <vehicle id="226" type="passenger" depart="226.00">
        <route edges="195433863#1"/>
    </vehicle>
    <vehicle id="227" type="passenger" depart="227.00">
        <route edges="1078778152#1 195433863#1 195433863#2"/>
    </vehicle>
    <vehicle id="228" type="passenger" depart="228.00">
        <route edges="749905614#0 195433863#1 195433863#2"/>
    </vehicle>
    <vehicle id="230" type="passenger" depart="230.00">
        <route edges="1078778152#1 195433863#1"/>
    </vehicle>
    <vehicle id="231" type="passenger" depart="231.00">
        <route edges="195433863#1"/>
    </vehicle>
    <vehicle id="233" type="passenger" depart="233.00">
        <route edges="1078778152#1 195433863#1 195433863#2 195433863#3"/>
    </vehicle>
    <vehicle id="235" type="passenger" depart="235.00">
        <route edges="195433863#1 195433863#2"/>
    </vehicle>
    <vehicle id="236" type="passenger" depart="236.00">
        <route edges="195433863#1"/>
    </vehicle>
    <vehicle id="237" type="passenger" depart="237.00">
        <route edges="195433863#1 195433863#2 195433863#3"/>
    </vehicle>
    <vehicle id="238" type="passenger" depart="238.00">
        <route edges="195433863#2 195433863#3"/>
    </vehicle>
    <vehicle id="239" type="passenger" depart="239.00">
        <route edges="749905614#0 195433863#1 195433863#2 195433863#3"/>
    </vehicle>
    <vehicle id="240" type="passenger" depart="240.00">
        <route edges="195433863#1"/>
    </vehicle>
    <vehicle id="bus6" type="bus_bus" depart="240.00">
        <route edges="1078778152#1 195433863#1"/>
    </vehicle>
    <vehicle id="241" type="passenger" depart="241.00">
        <route edges="195433863#1 195433863#2 195433863#3"/>
    </vehicle>
    <vehicle id="242" type="passenger" depart="242.00">