<?xml version="1.0" encoding="UTF-8"?>

<!-- generated on 2025-02-23 13:00:28.848694 by osmWebWizard.py v1_20_0+0002-343658e7c64
<configuration>
    <net-file value="C:\Users\Anson\OneDrive\002_UCB\04_ENGIN296\20241022\ai-for-traffic\2025-02-23-13-00-17\osm.net.xml.gz"/>
    <additional-files value="C:\Users\Anson\OneDrive\002_UCB\04_ENGIN296\20241022\ai-for-traffic\2025-02-23-13-00-17\osm_stops.add.xml,C:\Users\Anson\OneDrive\002_UCB\04_ENGIN296\20241022\ai-for-traffic\2025-02-23-13-00-17\osm_pt.rou.xml"/>
    <output-trip-file value="C:\Users\Anson\OneDrive\002_UCB\04_ENGIN296\20241022\ai-for-traffic\2025-02-23-13-00-17\osm.pedestrian.trips.xml"/>
    <route-file value="C:\Users\Anson\OneDrive\002_UCB\04_ENGIN296\20241022\ai-for-traffic\2025-02-23-13-00-17\osm.pedestrian.rou.xml"/>
    <persontrips value="True"/>
    <persontrip.walk-opposite-factor value="0.8"/>
    <prefix value="ped"/>
    <trip-attributes value="modes=&quot;public&quot;"/>
    <vehicle-class value="pedestrian"/>
    <fringe-factor value="1"/>
    <insertion-density value="10.0"/>
    <duarouter-weights.tls-penalty value="20"/>
</configuration>
-->

<routes xmlns:xsi="http://www.w3.org/2001/XMLSchema-instance" xsi:noNamespaceSchemaLocation="http://sumo.dlr.de/xsd/routes_file.xsd">
    <vType id="ped_pedestrian" vClass="pedestrian"/>
    <person id="ped0" depart="0.00" type="ped_pedestrian">
        <personTrip from="1305513183" to="-1305513183" modes="public"/>
    </person>
    <person id="ped1" depart="276.26" type="ped_pedestrian">
        <personTrip from="1032757249#1" to="1032757241#0" modes="public"/>
    </person>
    <person id="ped2" depart="552.52" type="ped_pedestrian">
        <personTrip from="417682507#0" to="196779226#2" modes="public"/>
    </person>
    <person id="ped3" depart="828.78" type="ped_pedestrian">
        <personTrip from="417682515#3" to="1032757235#3" modes="public"/>
    </person>
    <person id="ped4" depart="1105.04" type="ped_pedestrian">
        <personTrip from="1032757256#1" to="-1305513183" modes="public"/>
    </person>
    <person id="ped5" depart="1381.30" type="ped_pedestrian">
        <personTrip from="1032757241#0" to="1078778156#1" modes="public"/>
    </person>
    <person id="ped6" depart="1657.56" type="ped_pedestrian">
        <personTrip from="-1305513183" to="1032757240#2" modes="public"/>
    </person>
    <person id="ped7" depart="1933.82" type="ped_pedestrian">
        <personTrip from="1305513183" to="1200740357" modes="public"/>
    </person>
    <person id="ped8" depart="2210.08" type="ped_pedestrian">
        <personTrip from="1032757241#0" to="1305513147#1" modes="public"/>
    </person>
    <person id="ped9" depart="2486.34" type="ped_pedestrian">
        <personTrip from="417682507#5" to="-1305513182" modes="public"/>
    </person>
    <person id="ped10" depart="2762.60" type="ped_pedestrian">
        <personTrip from="417682507#5" to="279321236#1" modes="public"/>
    </person>
    <person id="ped11" depart="3038.86" type="ped_pedestrian">
        <personTrip from="1032757253#0" to="1032757239" modes="public"/>
    </person>
    <person id="ped12" depart="3315.12" type="ped_pedestrian">
        <personTrip from="431330572" to="1032757253#0" modes="public"/>
    </person>
    <person id="ped13" depart="3591.38" type="ped_pedestrian">
        <personTrip from="1032757236#0" to="1032757236#0" modes="public"/>
    </person>
</routes>
