<?xml version="1.0" encoding="UTF-8"?>

<!-- generated on 2025-03-02 22:08:28 by Eclipse SUMO netedit Version 1.20.0
-->

<routes xmlns:xsi="http://www.w3.org/2001/XMLSchema-instance" xsi:noNamespaceSchemaLocation="http://sumo.dlr.de/xsd/routes_file.xsd">
    <!-- VTypes -->
    <vType id="Bus" vClass="bus"/>
    <vType id="t_0"/>
    <!-- Routes -->
    <route id="r_0" edges="749905614#0 195433863#1 195433863#2 195433863#3"/>
    <route id="r_1" edges="1078778152#1 195433863#1 195433863#2 195433863#3"/>
    <route id="r_2" edges="749905614#0 195433863#1 195433863#2 195433863#3"/>
    <!-- Vehicles, persons and containers (sorted by depart) -->
    <flow id="f_0" begin="0.00" route="r_0" end="3600.00" vehsPerHour="1800"/>
    <flow id="f_1" begin="0.00" route="r_1" end="3600.00" vehsPerHour="1800"/>
    <flow id="f_2" type="Bus" begin="0.00" route="r_2" end="3600.00" number="100"/>
</routes>
