<?xml version="1.0" encoding="UTF-8"?>

<!-- generated on 2025-02-23 13:04:04 by Eclipse SUMO netedit Version 1.20.0
-->

<routes xmlns:xsi="http://www.w3.org/2001/XMLSchema-instance" xsi:noNamespaceSchemaLocation="http://sumo.dlr.de/xsd/routes_file.xsd">
    <!-- VTypes -->
    <vType id="bike_bicycle" vClass="bicycle"/>
    <vType id="motorcycle_motorcycle" vClass="motorcycle"/>
    <vType id="ped_pedestrian" vClass="pedestrian"/>
    <vType id="pt_aerialway" length="2.50" vClass="cable_car" width="2.00" personCapacity="4"/>
    <vType id="pt_bus" vClass="bus"/>
    <vType id="pt_ferry" vClass="ship"/>
    <vType id="pt_light_rail" vClass="rail_urban"/>
    <vType id="pt_minibus" vClass="bus"/>
    <vType id="pt_monorail" vClass="rail_urban"/>
    <vType id="pt_share_taxi" vClass="taxi"/>
    <vType id="pt_subway" vClass="subway"/>
    <vType id="pt_train" vClass="rail"/>
    <vType id="pt_tram" vClass="tram"/>
    <vType id="pt_trolleybus" vClass="bus"/>
    <!-- Routes -->
    <route id="pt_bus_51B:0" edges="749905614#0 195433863#1 195433863#2 195433863#3" color="57,163,82">
        <stop busStop="6410508155" duration="20.00" until="52.00"/>
    </route>
    <route id="pt_bus_51B:2" edges="749905614#0 195433863#1 195433863#2 195433863#3" color="57,163,82">
        <stop busStop="6410508155" duration="20.00" until="50.00"/>
    </route>
    <route id="pt_bus_52:0" edges="749905614#0 195433863#1 195433863#2 195433863#3">
        <stop busStop="6364416038" duration="20.00" until="101.00"/>
    </route>
    <route id="pt_bus_52:1" edges="195433863#3">
        <stop busStop="6364416038" duration="20.00" until="31.00"/>
    </route>
    <route id="pt_bus_6:0" edges="1078778152#1 195433863#1 195433863#2 195433863#3">
        <stop busStop="6364416038" duration="20.00" until="69.00"/>
    </route>
    <route id="pt_bus_7:1" edges="749905614#0 195433863#1 195433863#2 195433863#3">
        <stop busStop="6410508155" duration="20.00" until="53.00"/>
    </route>
    <route id="pt_bus_851:0" edges="749905614#0 195433863#1 195433863#2 195433863#3">
        <stop busStop="6410508155" duration="20.00" until="50.00"/>
    </route>
    <route id="pt_bus_N:0" edges="749905614#0 195433863#1 195433863#2 195433863#3">
        <stop busStop="6410508155" duration="20.00" until="65.00"/>
    </route>
    <route id="pt_bus_P:0" edges="749905614#0 195433863#1 195433863#2 195433863#3">
        <stop busStop="6410508155" duration="20.00" until="51.00"/>
    </route>
    <!-- Vehicles, persons and containers (sorted by depart) -->
    <person id="ped0" type="ped_pedestrian" depart="0.00">
        <walk edges="1305513183 -1305513183"/>
    </person>
    <flow id="pt_bus_51B:0" type="pt_bus" begin="15.00" line="51B:0" route="pt_bus_51B:0" end="3615.00" period="600.00">
        <param key="completeness" value="0.02"/>
        <param key="name" value="AC Transit 51B: Rockridge BART =&gt; Berkeley Marina"/>
    </flow>
    <flow id="pt_bus_52:0" type="pt_bus" begin="21.00" line="52:0" route="pt_bus_52:0" end="3621.00" period="600.00">
        <param key="completeness" value="0.02"/>
        <param key="name" value="AC Transit 52: University Village =&gt; U.C. Campus"/>
    </flow>
    <flow id="pt_bus_52:1" type="pt_bus" begin="52.00" line="52:1" route="pt_bus_52:1" end="3652.00" period="600.00">
        <param key="completeness" value="0.02"/>
        <param key="name" value="AC Transit 52: U.C. Campus =&gt; University Village"/>
    </flow>
    <flow id="pt_bus_51B:2" type="pt_bus" begin="119.00" line="51B:2" route="pt_bus_51B:2" end="3719.00" period="600.00">
        <param key="completeness" value="0.02"/>
        <param key="name" value="AC Transit 51B: Rockridge BART =&gt; Berkeley Amtrak"/>
    </flow>
    <flow id="pt_bus_7:1" type="pt_bus" begin="165.00" line="7:1" route="pt_bus_7:1" end="3765.00" period="600.00">
        <param key="completeness" value="0.01"/>
        <param key="name" value="AC Transit 7: Emeryville Amtrak =&gt; El Cerrito del Norte BART"/>
    </flow>
    <flow id="pt_bus_851:0" type="pt_bus" begin="253.00" line="851:0" route="pt_bus_851:0" end="3853.00" period="600.00">
        <param key="completeness" value="0.01"/>
        <param key="name" value="AC Transit 851: Fruitvale BART =&gt; Downtown Berkeley"/>
    </flow>
    <flow id="pt_bus_6:0" type="pt_bus" begin="406.00" line="6:0" route="pt_bus_6:0" end="4006.00" period="600.00">
        <param key="completeness" value="0.02"/>
        <param key="name" value="AC Transit 6: Downtown Oakland =&gt; Downtown Berkeley"/>
    </flow>
    <flow id="pt_bus_P:0" type="pt_bus" begin="441.00" line="P:0" route="pt_bus_P:0" end="4041.00" period="600.00">
        <param key="completeness" value="0.03"/>
        <param key="name" value="Bear Transit P: Downtown Berkeley =&gt; Hearst Mining Circle =&gt; Downtown Berkeley"/>
    </flow>
    <trip id="bike1" type="bike_bicycle" depart="684.36" departLane="best" departSpeed="max" from="-195433863#3" to="-1305513183"/>
    <person id="ped4" type="ped_pedestrian" depart="1105.04"/>
    <trip id="motorcycle1" type="motorcycle_motorcycle" depart="1335.57" departLane="best" departSpeed="max" from="1078778152#1" to="195433863#1"/>
    <trip id="bike2" type="bike_bicycle" depart="1368.72" departLane="best" from="195433863#1" to="195433863#1"/>
    <person id="ped7" type="ped_pedestrian" depart="1933.82">
        <walk edges="1305513183 1032757241#1 1032757241#0"/>
    </person>
    <person id="ped8" type="ped_pedestrian" depart="2210.08"/>
    <trip id="motorcycle2" type="motorcycle_motorcycle" depart="2671.14" departLane="best" departSpeed="max" from="749905614#0" to="195433863#3"/>
    <trip id="bike5" type="bike_bicycle" depart="3421.81" departLane="best" departSpeed="max" from="-195433863#3" to="-749905614#0"/>
    <person id="ped13" type="ped_pedestrian" depart="3591.38">
        <walk edges="1032757236#0"/>
    </person>
</routes>
