<?xml version="1.0" encoding="UTF-8"?>

<!-- generated on 2025-03-10 18:19:16 by Eclipse SUMO netconvert Version 1.20.0
<configuration xmlns:xsi="http://www.w3.org/2001/XMLSchema-instance" xsi:noNamespaceSchemaLocation="http://sumo.dlr.de/xsd/netconvertConfiguration.xsd">

    <input>
        <type-files value="${SUMO_HOME}/data/typemap/osmNetconvert.typ.xml,${SUMO_HOME}/data/typemap/osmNetconvertAerialway.typ.xml"/>
        <osm-files value="osm_bbox.osm.xml.gz"/>
    </input>

    <output>
        <output-file value="osm.net.xml.gz"/>
        <output.street-names value="true"/>
        <output.original-names value="true"/>
        <ptstop-output value="osm_stops.add.xml"/>
        <ptline-output value="osm_ptlines.xml"/>
    </output>

    <projection>
        <proj.utm value="true"/>
    </projection>

    <processing>
        <geometry.remove value="true"/>
        <roundabouts.guess value="true"/>
    </processing>

    <tls_building>
        <tls.discard-simple value="true"/>
        <tls.join value="true"/>
        <tls.guess-signals value="true"/>
        <tls.default-type value="actuated"/>
    </tls_building>

    <ramp_guessing>
        <ramps.guess value="true"/>
    </ramp_guessing>

    <junctions>
        <junctions.join value="true"/>
        <junctions.corner-detail value="5"/>
    </junctions>

    <railway>
        <railway.topology.repair value="true"/>
    </railway>

</configuration>
-->

<additional xmlns:xsi="http://www.w3.org/2001/XMLSchema-instance" xsi:noNamespaceSchemaLocation="http://sumo.dlr.de/xsd/additional_file.xsd">
    <busStop id="-6561896527" name="Shattuck Avenue &amp; University Avenue" lane="-22277726#1_0" startPos="65.39" endPos="80.39" friendlyPos="true" lines="18 7"/>
    <busStop id="6561896528" name="Shattuck Avenue &amp; University Avenue" lane="22277726#0_0" startPos="20.80" endPos="35.80" friendlyPos="true" lines="18 7 F N"/>
    <busStop id="6561896529" name="University Avenue &amp; Kala Bagai Way" lane="25738794#0_0" startPos="18.16" endPos="33.16" friendlyPos="true" lines="52"/>
    <busStop id="6561896530" name="University Avenue &amp; Shattuck Avenue" lane="292218768#0_0" startPos="20.58" endPos="35.58" friendlyPos="true" lines="51B 88 800 79"/>
    <busStop id="6561896531" name="University Avenue &amp; Shattuck Avenue" lane="1082634545#0_0" startPos="11.46" endPos="26.46" friendlyPos="true" lines="51B 52 79 800"/>
</additional>
