<?xml version="1.0" encoding="UTF-8"?>

<!-- generated on 2025-03-10 18:19:16.620839 by $Id: ptlines2flows.py v1_3_1+0313-ccb31df3eb jakob.erdmann@dlr.de 2019-09-02 13:26:32 +0200 $ v1_20_0+0002-343658e7c64
<configuration>
    <net-file value="C:\Users\Anson\OneDrive\002_UCB\04_ENGIN296\ai-for-traffic\2025-03-10-18-19-13\osm.net.xml.gz"/>
    <ptlines-file value="C:\Users\Anson\OneDrive\002_UCB\04_ENGIN296\ai-for-traffic\2025-03-10-18-19-13\osm_ptlines.xml"/>
    <ptstops-file value="C:\Users\Anson\OneDrive\002_UCB\04_ENGIN296\ai-for-traffic\2025-03-10-18-19-13\osm_stops.add.xml"/>
    <output-file value="C:\Users\Anson\OneDrive\002_UCB\04_ENGIN296\ai-for-traffic\2025-03-10-18-19-13\osm_pt.rou.xml"/>
    <stopinfos-file value="C:\Users\Anson\OneDrive\002_UCB\04_ENGIN296\ai-for-traffic\2025-03-10-18-19-13\stopinfos.xml"/>
    <routes-file value="C:\Users\Anson\OneDrive\002_UCB\04_ENGIN296\ai-for-traffic\2025-03-10-18-19-13\vehroutes.xml"/>
    <trips-file value="C:\Users\Anson\OneDrive\002_UCB\04_ENGIN296\ai-for-traffic\2025-03-10-18-19-13\trips.trips.xml"/>
    <end value="100000.0"/>
    <min-stops value="0"/>
    <extend-to-fringe value="True"/>
    <random-begin value="True"/>
    <seed value="42"/>
    <ignore-errors value="True"/>
    <vtype-prefix value="pt_"/>
    <verbose value="True"/>
</configuration>
-->

<routes xmlns:xsi="http://www.w3.org/2001/XMLSchema-instance" xsi:noNamespaceSchemaLocation="http://sumo.dlr.de/xsd/routes_file.xsd">
    <vType id="pt_bus" vClass="bus" speedFactor="0.95"/>
    <vType id="pt_tram" vClass="tram" speedFactor="1.0"/>
    <vType id="pt_train" vClass="rail"/>
    <vType id="pt_subway" vClass="subway"/>
    <vType id="pt_light_rail" vClass="rail_urban"/>
    <vType id="pt_monorail" vClass="rail_urban"/>
    <vType id="pt_trolleybus" vClass="bus" speedFactor="0.95"/>
    <vType id="pt_minibus" vClass="bus" speedFactor="0.95"/>
    <vType id="pt_share_taxi" vClass="taxi" speedFactor="0.95"/>
    <vType id="pt_aerialway" vClass="cable_car" length="2.5" width="2" personCapacity="4"/>
    <vType id="pt_ferry" vClass="ship"/>
    <trip id="0_bus_51B:0" type="pt_bus" depart="15.0" departLane="best" from="25738780#0" to="195604807#1">
        <stop busStop="6561896531" duration="30"/>  <!-- University Avenue & Shattuck Avenue -->
    </trip>
    <trip id="1_bus_51B:1" type="pt_bus" depart="15.0" departLane="best" from="771466844#0" to="26379240#0">
        <stop busStop="6561896530" duration="30"/>  <!-- University Avenue & Shattuck Avenue -->
    </trip>
    <trip id="2_bus_52:0" type="pt_bus" depart="17.0" departLane="best" from="771466844#0" to="25738794#0">
        <stop busStop="6561896529" duration="30"/>  <!-- University Avenue & Kala Bagai Way -->
    </trip>
    <trip id="3_bus_52:1" type="pt_bus" depart="52.0" departLane="best" from="25738780#0" to="195604807#1">
        <stop busStop="6561896531" duration="30"/>  <!-- University Avenue & Shattuck Avenue -->
    </trip>
    <trip id="4_bus_18:0" type="pt_bus" depart="119.0" departLane="best" from="-22277726#1" to="26379240#0">
        <stop busStop="-6561896527" duration="30"/>  <!-- Shattuck Avenue & University Avenue -->
    </trip>
    <trip id="5_bus_18:1" type="pt_bus" depart="131.0" departLane="best" from="-1022312150" to="22277726#0">
        <stop busStop="6561896528" duration="30"/>  <!-- Shattuck Avenue & University Avenue -->
    </trip>
    <trip id="6_bus_51B:2" type="pt_bus" depart="132.0" departLane="best" from="25738780#0" to="195604807#1">
        <stop busStop="6561896531" duration="30"/>  <!-- University Avenue & Shattuck Avenue -->
    </trip>
    <trip id="7_bus_51B:3" type="pt_bus" depart="133.0" departLane="best" from="771466844#0" to="26379240#0">
        <stop busStop="6561896530" duration="30"/>  <!-- University Avenue & Shattuck Avenue -->
    </trip>
    <trip id="8_bus_88:0" type="pt_bus" depart="165.0" departLane="best" from="771466844#0" to="26379240#0">
        <stop busStop="6561896530" duration="30"/>  <!-- University Avenue & Shattuck Avenue -->
    </trip>
    <trip id="9_bus_7:0" type="pt_bus" depart="253.0" departLane="best" from="-22277726#1" to="26379240#0">
        <stop busStop="-6561896527" duration="30"/>  <!-- Shattuck Avenue & University Avenue -->
    </trip>
    <trip id="10_bus_7:1" type="pt_bus" depart="303.0" departLane="best" from="-1022312150" to="22277726#0">
        <stop busStop="6561896528" duration="30"/>  <!-- Shattuck Avenue & University Avenue -->
    </trip>
    <trip id="11_bus_800:0" type="pt_bus" depart="326.0" departLane="best" from="771466844#0" to="26379240#0">
        <stop busStop="6561896530" duration="30"/>  <!-- University Avenue & Shattuck Avenue -->
    </trip>
    <trip id="12_bus_F:0" type="pt_bus" depart="383.0" departLane="best" from="-1022312150" to="22277726#0">
        <stop busStop="6561896528" duration="30"/>  <!-- Shattuck Avenue & University Avenue -->
    </trip>
    <trip id="13_bus_79:0" type="pt_bus" depart="389.0" departLane="best" from="771466844#0" to="26379240#0">
        <stop busStop="6561896530" duration="30"/>  <!-- University Avenue & Shattuck Avenue -->
    </trip>
    <trip id="14_bus_79:1" type="pt_bus" depart="406.0" departLane="best" from="25738780#0" to="195604807#1">
        <stop busStop="6561896531" duration="30"/>  <!-- University Avenue & Shattuck Avenue -->
    </trip>
    <trip id="15_bus_N:0" type="pt_bus" depart="441.0" departLane="best" from="25738780#0" to="22277726#0">
        <stop busStop="6561896528" duration="30"/>  <!-- Shattuck Avenue & University Avenue -->
    </trip>
    <trip id="16_bus_800:1" type="pt_bus" depart="535.0" departLane="best" from="-1022312150" to="195604807#1">
        <stop busStop="6561896531" duration="30"/>  <!-- University Avenue & Shattuck Avenue -->
    </trip>
</routes>
